Molecule
Extended SDF File Header; Molecular Materials Informatics, Inc.
$name=Molecule $title=
 29 33  0  0  0  0  0  0  0  0999 V2000
    0.0778   -0.5019   -0.6165 C   0  0  0  0  0  0  0  0  0  0  0  0
   -1.2517   -0.7519   -0.1920 O   0  0  0  0  0  0  0  0  0  0  0  0
   -1.8203   -2.0922   -0.0824 C   0  0  0  0  0  0  0  0  0  0  0  0
   -3.1805   -2.1428   -0.0021 C   0  0  0  0  0  0  0  0  0  0  0  0
   -3.8514   -3.4428   -0.0594 C   0  0  0  0  0  0  0  0  0  0  0  0
   -3.1712   -4.5718   -0.1731 C   0  0  0  0  0  0  0  0  0  0  0  0
   -1.7292   -4.6018   -0.1888 C   0  0  0  0  0  0  0  0  0  0  0  0
   -1.0114   -3.4582   -0.1274 C   0  0  0  0  0  0  0  0  0  0  0  0
    0.4776   -3.5507   -0.0058 N   0  0  0  0  0  0  0  0  0  0  0  0
    1.2111   -2.8658    1.0813 C   0  0  0  0  0  0  0  0  0  0  0  0
    2.6674   -3.1492    0.6816 C   0  0  0  0  0  0  0  0  0  0  0  0
    3.1262   -2.4825   -0.6264 C   0  0  0  0  0  0  0  0  0  0  0  0
    4.5867   -2.9827   -0.9340 C   0  0  0  0  0  0  0  0  0  0  0  0
    4.9046   -4.3058   -0.1354 C   0  0  0  0  0  0  0  0  0  0  0  0
    3.7559   -5.2368   -0.2241 N   0  0  0  0  0  0  0  0  0  0  0  0
    2.5304   -4.6129    0.3666 C   0  0  0  0  0  0  0  0  0  0  0  0
    1.3445   -4.5486   -0.6643 C   0  0  0  0  0  0  0  0  0  0  0  0
   -1.1607   -5.8190   -0.1927 F   0  0  0  0  0  0  0  0  0  0  0  0
   -5.3018   -3.5064   -0.0583 C   0  0  0  0  0  0  0  0  0  0  0  0
   -5.8715   -4.6010   -0.1309 O   0  0  0  0  0  0  0  0  0  0  0  0
   -6.0770   -2.2840    0.0035 C   0  0  0  0  0  0  0  0  0  0  0  0
   -5.4731   -1.1039    0.0638 C   0  0  0  0  0  0  0  0  0  0  0  0
   -4.0745   -0.9435    0.0723 N   0  0  0  0  0  0  0  0  0  0  0  0
   -3.5987    0.4255    0.2871 C   0  0  0  0  0  0  0  0  0  0  0  0
   -4.7283    1.4537    0.0826 C   0  0  0  0  0  0  0  0  0  0  0  0
   -3.6807    1.2282   -1.0227 C   0  0  0  0  0  0  0  0  0  0  0  0
   -7.5381   -2.3257    0.0016 C   0  0  0  0  0  0  0  0  0  0  0  0
   -8.1345   -3.4054   -0.0692 O   0  0  0  0  0  0  0  0  0  0  0  0
   -8.2588   -1.1373    0.0823 O   0  0  0  0  0  0  0  0  0  0  0  0
  1  2  1  0  0  0  0
  2  3  1  0  0  0  0
  3  4  2  0  0  0  0
  4  5  1  0  0  0  0
  5  6  2  0  0  0  0
  6  7  1  0  0  0  0
  7  8  2  0  0  0  0
  3  8  1  0  0  0  0
  8  9  1  0  0  0  0
  9 10  1  0  0  0  0
 11 10  1  0  0  0  0
 11 12  1  0  0  0  0
 12 13  1  0  0  0  0
 13 14  1  0  0  0  0
 14 15  1  0  0  0  0
 15 16  1  0  0  0  0
 11 16  1  0  0  0  0
 16 17  1  0  0  0  0
  9 17  1  0  0  0  0
  7 18  1  0  0  0  0
  5 19  1  0  0  0  0
 19 20  2  0  0  0  0
 19 21  1  0  0  0  0
 21 22  2  0  0  0  0
 22 23  1  0  0  0  0
  4 23  1  0  0  0  0
 23 24  1  0  0  0  0
 24 25  1  0  0  0  0
 25 26  1  0  0  0  0
 24 26  1  0  0  0  0
 21 27  1  0  0  0  0
 27 28  2  0  0  0  0
 27 29  1  0  0  0  0
M  END
> <Molecule Name> $type=string
Prestw-1446

> <CDD Number> $type=string
CDD-460

> <IUPAC> $type=string
7-[(4aS,7aS)-octahydro-1H-pyrrolo[3,4-b]pyridin-6-yl]-1-cyclopropyl-6-fluoro-8-methoxy-4-oxo-1,4-dihydroquinoline-3-carboxylic acid

> <Collections> $type=string
DartoisSet_AntiTuberculars
Set2_NotListedAsBetaLactamResistant (mostly)
TrainingSet_Kleb_p_ALPerryman_JSF

> <ChEMBL_Data_Neisseria_g: Molecule_Preferred_NAME> $type=string
MOXIFLOXACIN

> <ChEMBL_Data_Neisseria_g: NUM_RO5_VIOLATIONS> $type=integer
0

> <ChEMBL_Data_Neisseria_g: Qualifier_for_MIC_Ng> $type=string
=

> <ChEMBL_Data_Neisseria_g: ASSAY_CHEMBLID> $type=string
CHEMBL1247539

> <ChEMBL_Data_Neisseria_g: DESCRIPTION_of_Assay_Ng> $type=string
Antibacterial activity against ciprofloxacin resistant Neisseria gonorrhoeae isolates by broth dilution method

> <ChEMBL_Data_Neisseria_g: PUBMED_ID> $type=integer
20065058

> <ChEMBL_Data_Neisseria_g: YEAR> $type=integer
2010

> <ChEMBL_Data_Neisseria_g: JOURNAL> $type=string
Antimicrob. Agents Chemother.

> <ChEMBL_Data_Neisseria_g: VOLUME> $type=integer
54

> <ChEMBL_Data_Neisseria_g: FIRST_PAGE> $type=integer
1338

> <ChEMBL_Data_Neisseria_g: MIC_vs_Neisseria_microg_per_mL> $type=real
2

> <Clean Energy> $type=real
102.739

> <ALogP> $type=real
-0.702

> <Active> $type=integer
1

> <Molecular_Weight> $type=real
401.431

> <ChEMBL_Data_Neisseria_g: STRAIN_of_Ng> $type=string


$$$$

Generated by Molecular Materials Informatics

 30 32  0  0  0  0  0  0  0  0999 V2000
    6.3194   -0.0728    0.0000 C   0  0  0  0  0  0  0  0  0  0  0  0
    5.0203   -0.8228    0.0000 C   0  0  0  0  0  0  0  0  0  0  0  0
    3.7212   -0.0728    0.0000 C   0  0  0  0  0  0  0  0  0  0  0  0
    2.4223   -0.8228    0.0000 C   0  0  0  0  0  0  0  0  0  0  0  0
    1.1232   -0.0728    0.0000 N   0  0  0  0  0  0  0  0  0  0  0  0
    1.1232    1.4272    0.0000 C   0  0  0  0  0  0  0  0  0  0  0  0
   -0.3768    1.4272    0.0000 C   0  0  0  0  0  0  0  0  0  0  0  0
   -0.3768   -0.0728    0.0000 C   0  0  0  0  0  0  0  0  0  0  0  0
   -1.4375   -1.1335    0.0000 O   0  0  0  0  0  0  0  0  0  0  0  0
   -1.4375    2.4877    0.0000 N   0  0  0  0  0  0  0  0  0  0  0  0
   -2.8864    2.0995    0.0000 C   0  0  0  0  0  0  0  0  0  0  0  0
   -3.2746    0.6506    0.0000 O   0  0  0  0  0  0  0  0  0  0  0  0
   -3.9470    3.1603    0.0000 C   0  0  0  0  0  0  0  0  0  0  0  0
   -5.3959    2.7721    0.0000 N   0  0  0  0  0  0  0  0  0  0  0  0
   -5.7840    1.3232    0.0000 O   0  0  0  0  0  0  0  0  0  0  0  0
   -4.7235    0.2625    0.0000 C   0  0  0  0  0  0  0  0  0  0  0  0
   -5.1117   -1.1865    0.0000 C   0  0  0  0  0  0  0  0  0  0  0  0
   -6.5606   -1.5746    0.0000 O   0  0  0  0  0  0  0  0  0  0  0  0
   -4.0510   -2.2470    0.0000 O   0  0  0  0  0  0  0  0  0  0  0  0
   -3.5588    4.6092    0.0000 C   0  0  0  0  0  0  0  0  0  0  0  0
   -4.5028    5.7748    0.0000 C   0  0  0  0  0  0  0  0  0  0  0  0
   -3.6859    7.0328    0.0000 S   0  0  0  0  0  0  0  0  0  0  0  0
   -2.2370    6.6446    0.0000 C   0  0  0  0  0  0  0  0  0  0  0  0
   -2.1584    5.1466    0.0000 N   0  0  0  0  0  0  0  0  0  0  0  0
   -1.0711    7.5886    0.0000 N   0  0  0  0  0  0  0  0  0  0  0  0
    2.4223    2.1772    0.0000 S   0  0  0  0  0  0  0  0  0  0  0  0
    3.7212    1.4272    0.0000 C   0  0  0  0  0  0  0  0  0  0  0  0
    2.4223   -2.3228    0.0000 C   0  0  0  0  0  0  0  0  0  0  0  0
    1.1232   -3.0728    0.0000 O   0  0  0  0  0  0  0  0  0  0  0  0
    3.7212   -3.0728    0.0000 O   0  0  0  0  0  0  0  0  0  0  0  0
  1  2  2  0  0  0  0
  2  3  1  0  0  0  0
  3  4  2  0  0  0  0
  4  5  1  0  0  0  0
  6  5  1  1  0  0  0
  6  7  1  0  0  0  0
  7  8  1  0  0  0  0
  5  8  1  0  0  0  0
  8  9  2  0  0  0  0
  7 10  1  1  0  0  0
 10 11  1  0  0  0  0
 11 12  2  0  0  0  0
 11 13  1  0  0  0  0
 13 14  2  0  0  0  0
 14 15  1  0  0  0  0
 15 16  1  0  0  0  0
 16 17  1  0  0  0  0
 17 18  2  0  0  0  0
 17 19  1  0  0  0  0
 13 20  1  0  0  0  0
 20 21  2  0  0  0  0
 21 22  1  0  0  0  0
 22 23  1  0  0  0  0
 23 24  2  0  0  0  0
 20 24  1  0  0  0  0
 23 25  1  0  0  0  0
  6 26  1  0  0  0  0
 26 27  1  0  0  0  0
  3 27  1  0  0  0  0
  4 28  1  0  0  0  0
 28 29  2  0  0  0  0
 28 30  1  0  0  0  0
M  END
> <Molecule Name>
Prestw-462

> <CDD Number>
CDD-112

> <IUPAC>
(6R,7R)-7-[(2Z)-2-(2-amino-1,3-thiazol-4-yl)-2-[(carboxymethoxy)imino]acetamido]-3-ethenyl-8-oxo-5-thia-1-azabicyclo[4.2.0]oct-2-ene-2-carboxylic acid

> <Collections>
Set2_NotListedAsBetaLactamResistant (mostly)

> <ChEMBL_Data_Neisseria_g: Molecule_Preferred_NAME>
CEFIXIME

> <ChEMBL_Data_Neisseria_g: NUM_RO5_VIOLATIONS>
1

> <ChEMBL_Data_Neisseria_g: Qualifier_for_MIC_Ng>
=

> <ChEMBL_Data_Neisseria_g: ASSAY_CHEMBLID>
CHEMBL1248449

> <ChEMBL_Data_Neisseria_g: DESCRIPTION_of_Assay_Ng>
Antimicrobial activity against Neisseria gonorrhoeae isolate NG0304 expressing chromosomal cefixime-resistant penA gene by agar dilution method

> <ChEMBL_Data_Neisseria_g: PUBMED_ID>
20028823

> <ChEMBL_Data_Neisseria_g: YEAR>
2010

> <ChEMBL_Data_Neisseria_g: JOURNAL>
Antimicrob. Agents Chemother.

> <ChEMBL_Data_Neisseria_g: VOLUME>
54

> <ChEMBL_Data_Neisseria_g: FIRST_PAGE>
1060

> <ChEMBL_Data_Neisseria_g: MIC_vs_Neisseria_microg_per_mL>
1

> <ALogP>
-0.651

> <Active>
1

> <Molecular_Weight>
453.45

> <ChEMBL_Data_Neisseria_g: STRAIN_of_Ng>
isolate NG0304

$$$$

Generated by Molecular Materials Informatics

 21 23  0  0  0  0  0  0  0  0999 V2000
    0.0243    6.5300    0.0000 C   0  0  0  0  0  0  0  0  0  0  0  0
    0.0243    5.0300    0.0000 C   0  0  0  0  0  0  0  0  0  0  0  0
   -1.2747    4.2800    0.0000 O   0  0  0  0  0  0  0  0  0  0  0  0
    1.3234    4.2800    0.0000 N   0  0  0  0  0  0  0  0  0  0  0  0
    1.3234    2.7800    0.0000 C   0  0  0  0  0  0  0  0  0  0  0  0
    2.6223    2.0300    0.0000 C   0  0  0  0  0  0  0  0  0  0  0  0
    2.6223    0.5300    0.0000 C   0  0  0  0  0  0  0  0  0  0  0  0
    1.3234   -0.2200    0.0000 C   0  0  0  0  0  0  0  0  0  0  0  0
    0.0243    0.5300    0.0000 C   0  0  0  0  0  0  0  0  0  0  0  0
    0.0243    2.0300    0.0000 C   0  0  0  0  0  0  0  0  0  0  0  0
    1.3234   -1.7200    0.0000 C   0  0  0  0  0  0  0  0  0  0  0  0
    2.5369   -2.6016    0.0000 C   0  0  0  0  0  0  0  0  0  0  0  0
    2.0734   -4.0282    0.0000 S   0  0  0  0  0  0  0  0  0  0  0  0
    0.5734   -4.0282    0.0000 C   0  0  0  0  0  0  0  0  0  0  0  0
    0.1098   -2.6016    0.0000 N   0  0  0  0  0  0  0  0  0  0  0  0
   -0.3084   -5.2418    0.0000 C   0  0  0  0  0  0  0  0  0  0  0  0
    0.3018   -6.6122    0.0000 C   0  0  0  0  0  0  0  0  0  0  0  0
   -0.5798   -7.8256    0.0000 C   0  0  0  0  0  0  0  0  0  0  0  0
   -2.0717   -7.6689    0.0000 C   0  0  0  0  0  0  0  0  0  0  0  0
   -2.6818   -6.2985    0.0000 N   0  0  0  0  0  0  0  0  0  0  0  0
   -1.8000   -5.0849    0.0000 C   0  0  0  0  0  0  0  0  0  0  0  0
  1  2  1  0  0  0  0
  2  3  2  0  0  0  0
  2  4  1  0  0  0  0
  4  5  1  0  0  0  0
  5  6  2  0  0  0  0
  6  7  1  0  0  0  0
  7  8  2  0  0  0  0
  8  9  1  0  0  0  0
  9 10  2  0  0  0  0
  5 10  1  0  0  0  0
  8 11  1  0  0  0  0
 11 12  2  0  0  0  0
 12 13  1  0  0  0  0
 13 14  1  0  0  0  0
 14 15  2  0  0  0  0
 11 15  1  0  0  0  0
 14 16  1  0  0  0  0
 16 17  2  0  0  0  0
 17 18  1  0  0  0  0
 18 19  2  0  0  0  0
 19 20  1  0  0  0  0
 20 21  2  0  0  0  0
 16 21  1  0  0  0  0
M  END
> <Molecule Name>
PnF1_49643185

> <CDD Number>
CDD-359475

> <IUPAC>
N-{4-[2-(pyridin-3-yl)-1,3-thiazol-4-yl]phenyl}acetamide

> <Collections>
TrainingSet_Kleb_p_ALPerryman_JSF

> <ChEMBL_Data_Neisseria_g: NUM_RO5_VIOLATIONS>
0

> <ChEMBL_Data_Neisseria_g: Qualifier_for_MIC_Ng>
>

> <ChEMBL_Data_Neisseria_g: ASSAY_CHEMBLID>
CHEMBL2343213

> <ChEMBL_Data_Neisseria_g: DESCRIPTION_of_Assay_Ng>
Antibacterial activity against Neisseria gonorrhoeae RCMB 010076 assessed as growth inhibition after 24 hrs by twofold serial dilution method

> <ChEMBL_Data_Neisseria_g: PUBMED_ID>
23357308

> <ChEMBL_Data_Neisseria_g: YEAR>
2013

> <ChEMBL_Data_Neisseria_g: JOURNAL>
Eur. J. Med. Chem.

> <ChEMBL_Data_Neisseria_g: VOLUME>
62

> <ChEMBL_Data_Neisseria_g: FIRST_PAGE>
270

> <ChEMBL_Data_Neisseria_g: MIC_vs_Neisseria_microg_per_mL>
500

> <ALogP>
2.127

> <Active>
0

> <Molecular_Weight>
295.359

> <ChEMBL_Data_Neisseria_g: STRAIN_of_Ng>
RCMB 010076

$$$$

Generated by Molecular Materials Informatics

171183  0  0  0  0  0  0  0  0999 V2000
  -34.5392   15.7086    0.0000 C   0  0  0  0  0  0  0  0  0  0  0  0
  -34.2939   14.2288    0.0000 C   0  0  0  0  0  0  0  0  0  0  0  0
  -35.4528   13.2764    0.0000 O   0  0  0  0  0  0  0  0  0  0  0  0
  -32.8897   13.7014    0.0000 N   0  0  0  0  0  0  0  0  0  0  0  0
  -31.7308   14.6537    0.0000 C   0  0  0  0  0  0  0  0  0  0  0  0
  -30.3267   14.1264    0.0000 C   0  0  0  0  0  0  0  0  0  0  0  0
  -30.9979   12.7850    0.0000 O   0  0  0  0  0  0  0  0  0  0  0  0
  -29.1678   15.0788    0.0000 N   0  0  0  0  0  0  0  0  0  0  0  0
  -27.7636   14.5513    0.0000 C   0  0  0  0  0  0  0  0  0  0  0  0
  -27.5181   13.0715    0.0000 C   0  0  0  0  0  0  0  0  0  0  0  0
  -28.6770   12.1192    0.0000 C   0  0  0  0  0  0  0  0  0  0  0  0
  -28.4318   10.6394    0.0000 C   0  0  0  0  0  0  0  0  0  0  0  0
  -29.5907    9.6870    0.0000 C   0  0  0  0  0  0  0  0  0  0  0  0
  -30.9948   10.2145    0.0000 C   0  0  0  0  0  0  0  0  0  0  0  0
  -31.2401   11.6943    0.0000 C   0  0  0  0  0  0  0  0  0  0  0  0
  -30.0812   12.6466    0.0000 C   0  0  0  0  0  0  0  0  0  0  0  0
  -26.6047   15.5037    0.0000 C   0  0  0  0  0  0  0  0  0  0  0  0
  -26.8499   16.9835    0.0000 O   0  0  0  0  0  0  0  0  0  0  0  0
  -25.2005   14.9763    0.0000 N   0  0  0  0  0  0  0  0  0  0  0  0
  -24.9550   13.4964    0.0000 C   0  0  0  0  0  0  0  0  0  0  0  0
  -24.2185   12.1897    0.0000 C   0  0  0  0  0  0  0  0  0  0  0  0
  -24.9818   10.8985    0.0000 C   0  0  0  0  0  0  0  0  0  0  0  0
  -26.4816   10.9139    0.0000 C   0  0  0  0  0  0  0  0  0  0  0  0
  -27.2183   12.2205    0.0000 C   0  0  0  0  0  0  0  0  0  0  0  0
  -26.4550   13.5117    0.0000 C   0  0  0  0  0  0  0  0  0  0  0  0
  -23.5403   13.9950    0.0000 C   0  0  0  0  0  0  0  0  0  0  0  0
  -23.2649   15.4693    0.0000 O   0  0  0  0  0  0  0  0  0  0  0  0
  -22.4012   13.0190    0.0000 N   0  0  0  0  0  0  0  0  0  0  0  0
  -20.9865   13.5177    0.0000 C   0  0  0  0  0  0  0  0  0  0  0  0
  -20.7109   14.9921    0.0000 C   0  0  0  0  0  0  0  0  0  0  0  0
  -21.8502   15.9681    0.0000 O   0  0  0  0  0  0  0  0  0  0  0  0
  -19.2963   15.4906    0.0000 N   0  0  0  0  0  0  0  0  0  0  0  0
  -18.8680   16.9282    0.0000 C   0  0  0  0  0  0  0  0  0  0  0  0
  -19.6498   18.2084    0.0000 C   0  0  0  0  0  0  0  0  0  0  0  0
  -18.9322   19.5255    0.0000 C   0  0  0  0  0  0  0  0  0  0  0  0
  -17.4325   19.5626    0.0000 C   0  0  0  0  0  0  0  0  0  0  0  0
  -16.6507   18.2824    0.0000 C   0  0  0  0  0  0  0  0  0  0  0  0
  -17.3685   16.9652    0.0000 C   0  0  0  0  0  0  0  0  0  0  0  0
  -16.8700   15.5506    0.0000 C   0  0  0  0  0  0  0  0  0  0  0  0
  -18.0614   14.6392    0.0000 C   0  0  0  0  0  0  0  0  0  0  0  0
  -18.0244   13.1397    0.0000 C   0  0  0  0  0  0  0  0  0  0  0  0
  -19.3045   12.3579    0.0000 O   0  0  0  0  0  0  0  0  0  0  0  0
  -16.7073   12.4219    0.0000 N   0  0  0  0  0  0  0  0  0  0  0  0
  -16.6702   10.9225    0.0000 C   0  0  0  0  0  0  0  0  0  0  0  0
  -17.9504   10.1406    0.0000 C   0  0  0  0  0  0  0  0  0  0  0  0
  -17.9134    8.6410    0.0000 C   0  0  0  0  0  0  0  0  0  0  0  0
  -19.1934    7.8592    0.0000 C   0  0  0  0  0  0  0  0  0  0  0  0
  -19.1565    6.3598    0.0000 C   0  0  0  0  0  0  0  0  0  0  0  0
  -20.4367    5.5779    0.0000 N   0  0  0  0  0  0  0  0  0  0  0  0
  -15.3531   10.2046    0.0000 C   0  0  0  0  0  0  0  0  0  0  0  0
  -14.0729   10.9865    0.0000 O   0  0  0  0  0  0  0  0  0  0  0  0
  -15.3162    8.7052    0.0000 N   0  0  0  0  0  0  0  0  0  0  0  0
  -13.9989    7.9874    0.0000 C   0  0  0  0  0  0  0  0  0  0  0  0
  -13.0067    6.8625    0.0000 C   0  0  0  0  0  0  0  0  0  0  0  0
  -11.5364    7.1592    0.0000 C   0  0  0  0  0  0  0  0  0  0  0  0
  -11.0584    8.5810    0.0000 C   0  0  0  0  0  0  0  0  0  0  0  0
  -12.0506    9.7059    0.0000 C   0  0  0  0  0  0  0  0  0  0  0  0
  -13.5209    9.4092    0.0000 C   0  0  0  0  0  0  0  0  0  0  0  0
  -14.9345    6.8148    0.0000 C   0  0  0  0  0  0  0  0  0  0  0  0
  -16.4176    7.0388    0.0000 O   0  0  0  0  0  0  0  0  0  0  0  0
  -14.3869    5.4185    0.0000 N   0  0  0  0  0  0  0  0  0  0  0  0
  -15.3224    4.2459    0.0000 C   0  0  0  0  0  0  0  0  0  0  0  0
  -14.7747    2.8496    0.0000 C   0  0  0  0  0  0  0  0  0  0  0  0
  -13.2916    2.6256    0.0000 O   0  0  0  0  0  0  0  0  0  0  0  0
  -15.7104    1.6770    0.0000 N   0  0  0  0  0  0  0  0  0  0  0  0
  -17.2087    1.7447    0.0000 C   0  0  0  0  0  0  0  0  0  0  0  0
  -18.1611    2.9036    0.0000 C   0  0  0  0  0  0  0  0  0  0  0  0
  -19.6409    2.6583    0.0000 C   0  0  0  0  0  0  0  0  0  0  0  0
  -20.1683    1.2541    0.0000 C   0  0  0  0  0  0  0  0  0  0  0  0
  -19.2160    0.0952    0.0000 C   0  0  0  0  0  0  0  0  0  0  0  0
  -17.7362    0.3405    0.0000 C   0  0  0  0  0  0  0  0  0  0  0  0
  -16.5638   -0.5951    0.0000 C   0  0  0  0  0  0  0  0  0  0  0  0
  -15.3116    0.2311    0.0000 C   0  0  0  0  0  0  0  0  0  0  0  0
  -13.9075   -0.2964    0.0000 C   0  0  0  0  0  0  0  0  0  0  0  0
  -13.6622   -1.7762    0.0000 O   0  0  0  0  0  0  0  0  0  0  0  0
  -12.7486    0.6560    0.0000 N   0  0  0  0  0  0  0  0  0  0  0  0
  -11.3444    0.1285    0.0000 C   0  0  0  0  0  0  0  0  0  0  0  0
  -11.0991   -1.3513    0.0000 C   0  0  0  0  0  0  0  0  0  0  0  0
   -9.6949   -1.8788    0.0000 C   0  0  0  0  0  0  0  0  0  0  0  0
   -8.5360   -0.9264    0.0000 C   0  0  0  0  0  0  0  0  0  0  0  0
   -7.1319   -1.4538    0.0000 C   0  0  0  0  0  0  0  0  0  0  0  0
   -6.8864   -2.9337    0.0000 C   0  0  0  0  0  0  0  0  0  0  0  0
   -8.0453   -3.8860    0.0000 C   0  0  0  0  0  0  0  0  0  0  0  0
   -9.4495   -3.3586    0.0000 C   0  0  0  0  0  0  0  0  0  0  0  0
  -10.1855    1.0809    0.0000 C   0  0  0  0  0  0  0  0  0  0  0  0
  -10.4309    2.5607    0.0000 O   0  0  0  0  0  0  0  0  0  0  0  0
   -8.7813    0.5534    0.0000 N   0  0  0  0  0  0  0  0  0  0  0  0
   -7.6224    1.5058    0.0000 C   0  0  0  0  0  0  0  0  0  0  0  0
   -6.2077    2.0043    0.0000 C   0  0  0  0  0  0  0  0  0  0  0  0
   -5.9322    3.4789    0.0000 C   0  0  0  0  0  0  0  0  0  0  0  0
   -7.0713    4.4547    0.0000 C   0  0  0  0  0  0  0  0  0  0  0  0
   -8.4860    3.9561    0.0000 C   0  0  0  0  0  0  0  0  0  0  0  0
   -8.7615    2.4816    0.0000 C   0  0  0  0  0  0  0  0  0  0  0  0
   -6.8859    0.1991    0.0000 C   0  0  0  0  0  0  0  0  0  0  0  0
   -6.2897   -1.1773    0.0000 O   0  0  0  0  0  0  0  0  0  0  0  0
   -5.3859    0.1838    0.0000 N   0  0  0  0  0  0  0  0  0  0  0  0
   -4.6491   -1.1229    0.0000 C   0  0  0  0  0  0  0  0  0  0  0  0
   -3.1493   -1.1382    0.0000 C   0  0  0  0  0  0  0  0  0  0  0  0
   -2.4126   -2.4449    0.0000 O   0  0  0  0  0  0  0  0  0  0  0  0
   -2.3861    0.1531    0.0000 N   0  0  0  0  0  0  0  0  0  0  0  0
   -2.9821    1.5294    0.0000 C   0  0  0  0  0  0  0  0  0  0  0  0
   -4.4039    2.0076    0.0000 C   0  0  0  0  0  0  0  0  0  0  0  0
   -4.7006    3.4779    0.0000 C   0  0  0  0  0  0  0  0  0  0  0  0
   -3.5757    4.4701    0.0000 C   0  0  0  0  0  0  0  0  0  0  0  0
   -2.1539    3.9921    0.0000 C   0  0  0  0  0  0  0  0  0  0  0  0
   -1.8572    2.5218    0.0000 C   0  0  0  0  0  0  0  0  0  0  0  0
   -0.5659    1.7585    0.0000 C   0  0  0  0  0  0  0  0  0  0  0  0
   -0.8928    0.2945    0.0000 C   0  0  0  0  0  0  0  0  0  0  0  0
    0.0996   -0.8304    0.0000 C   0  0  0  0  0  0  0  0  0  0  0  0
   -0.3786   -2.2522    0.0000 O   0  0  0  0  0  0  0  0  0  0  0  0
    1.5697   -0.5337    0.0000 N   0  0  0  0  0  0  0  0  0  0  0  0
    2.5621   -1.6586    0.0000 C   0  0  0  0  0  0  0  0  0  0  0  0
    4.0325   -1.3617    0.0000 C   0  0  0  0  0  0  0  0  0  0  0  0
    4.5104    0.0601    0.0000 O   0  0  0  0  0  0  0  0  0  0  0  0
    5.0246   -2.4866    0.0000 N   0  0  0  0  0  0  0  0  0  0  0  0
    6.4950   -2.1898    0.0000 C   0  0  0  0  0  0  0  0  0  0  0  0
    6.9730   -0.7680    0.0000 C   0  0  0  0  0  0  0  0  0  0  0  0
    5.9808    0.3569    0.0000 C   0  0  0  0  0  0  0  0  0  0  0  0
    6.4590    1.7787    0.0000 C   0  0  0  0  0  0  0  0  0  0  0  0
    5.4666    2.9036    0.0000 C   0  0  0  0  0  0  0  0  0  0  0  0
    5.9448    4.3254    0.0000 N   0  0  0  0  0  0  0  0  0  0  0  0
    7.4872   -3.3147    0.0000 C   0  0  0  0  0  0  0  0  0  0  0  0
    7.0090   -4.7366    0.0000 O   0  0  0  0  0  0  0  0  0  0  0  0
    8.9575   -3.0178    0.0000 N   0  0  0  0  0  0  0  0  0  0  0  0
    9.5815   -1.6538    0.0000 C   0  0  0  0  0  0  0  0  0  0  0  0
    8.9855   -0.2775    0.0000 C   0  0  0  0  0  0  0  0  0  0  0  0
    9.8795    0.9271    0.0000 C   0  0  0  0  0  0  0  0  0  0  0  0
   11.3697    0.7549    0.0000 C   0  0  0  0  0  0  0  0  0  0  0  0
   11.9657   -0.6215    0.0000 C   0  0  0  0  0  0  0  0  0  0  0  0
   11.0717   -1.8260    0.0000 C   0  0  0  0  0  0  0  0  0  0  0  0
   11.3684   -3.2964    0.0000 C   0  0  0  0  0  0  0  0  0  0  0  0
   10.0619   -4.0329    0.0000 C   0  0  0  0  0  0  0  0  0  0  0  0
    9.8899   -5.5231    0.0000 C   0  0  0  0  0  0  0  0  0  0  0  0
    8.5133   -6.1191    0.0000 O   0  0  0  0  0  0  0  0  0  0  0  0
   11.0942   -6.4171    0.0000 N   0  0  0  0  0  0  0  0  0  0  0  0
   10.9222   -7.9073    0.0000 C   0  0  0  0  0  0  0  0  0  0  0  0
    9.5457   -8.5033    0.0000 C   0  0  0  0  0  0  0  0  0  0  0  0
    9.3737   -9.9933    0.0000 C   0  0  0  0  0  0  0  0  0  0  0  0
    7.9972  -10.5894    0.0000 C   0  0  0  0  0  0  0  0  0  0  0  0
    7.8250  -12.0794    0.0000 C   0  0  0  0  0  0  0  0  0  0  0  0
    6.4486  -12.6754    0.0000 N   0  0  0  0  0  0  0  0  0  0  0  0
   12.1266   -8.8013    0.0000 C   0  0  0  0  0  0  0  0  0  0  0  0
   11.9546  -10.2914    0.0000 O   0  0  0  0  0  0  0  0  0  0  0  0
   13.5031   -8.2053    0.0000 N   0  0  0  0  0  0  0  0  0  0  0  0
   14.7075   -9.0993    0.0000 C   0  0  0  0  0  0  0  0  0  0  0  0
   14.5355  -10.5894    0.0000 C   0  0  0  0  0  0  0  0  0  0  0  0
   15.7399  -11.4834    0.0000 C   0  0  0  0  0  0  0  0  0  0  0  0
   15.5679  -12.9734    0.0000 C   0  0  0  0  0  0  0  0  0  0  0  0
   16.7722  -13.8676    0.0000 C   0  0  0  0  0  0  0  0  0  0  0  0
   16.6002  -15.3576    0.0000 N   0  0  0  0  0  0  0  0  0  0  0  0
   16.0840   -8.5033    0.0000 C   0  0  0  0  0  0  0  0  0  0  0  0
   16.2560   -7.0131    0.0000 O   0  0  0  0  0  0  0  0  0  0  0  0
   17.2884   -9.3973    0.0000 N   0  0  0  0  0  0  0  0  0  0  0  0
   18.6649   -8.8013    0.0000 C   0  0  0  0  0  0  0  0  0  0  0  0
   18.8369   -7.3111    0.0000 C   0  0  0  0  0  0  0  0  0  0  0  0
   17.6326   -6.4171    0.0000 C   0  0  0  0  0  0  0  0  0  0  0  0
   17.8046   -4.9271    0.0000 C   0  0  0  0  0  0  0  0  0  0  0  0
   16.6002   -4.0329    0.0000 C   0  0  0  0  0  0  0  0  0  0  0  0
   16.7722   -2.5429    0.0000 N   0  0  0  0  0  0  0  0  0  0  0  0
   19.8693   -9.6953    0.0000 C   0  0  0  0  0  0  0  0  0  0  0  0
   19.6973  -11.1854    0.0000 O   0  0  0  0  0  0  0  0  0  0  0  0
   21.2458   -9.0993    0.0000 N   0  0  0  0  0  0  0  0  0  0  0  0
   22.4502   -9.9933    0.0000 C   0  0  0  0  0  0  0  0  0  0  0  0
   23.8267   -9.3973    0.0000 C   0  0  0  0  0  0  0  0  0  0  0  0
   25.0311  -10.2914    0.0000 C   0  0  0  0  0  0  0  0  0  0  0  0
   26.4076   -9.6953    0.0000 C   0  0  0  0  0  0  0  0  0  0  0  0
   27.6122  -10.5894    0.0000 C   0  0  0  0  0  0  0  0  0  0  0  0
   28.9885   -9.9933    0.0000 N   0  0  0  0  0  0  0  0  0  0  0  0
   22.2782  -11.4834    0.0000 C   0  0  0  0  0  0  0  0  0  0  0  0
   20.9016  -12.0794    0.0000 O   0  0  0  0  0  0  0  0  0  0  0  0
   23.4825  -12.3774    0.0000 N   0  0  0  0  0  0  0  0  0  0  0  0
  1  2  1  0  0  0  0
  2  3  2  0  0  0  0
  2  4  1  0  0  0  0
  4  5  1  0  0  0  0
  5  6  1  0  0  0  0
  6  7  2  0  0  0  0
  6  8  1  0  0  0  0
  9  8  1  6  0  0  0
  9 10  1  0  0  0  0
 10 11  1  0  0  0  0
 11 12  2  0  0  0  0
 12 13  1  0  0  0  0
 13 14  2  0  0  0  0
 14 15  1  0  0  0  0
 15 16  2  0  0  0  0
 11 16  1  0  0  0  0
  9 17  1  0  0  0  0
 17 18  2  0  0  0  0
 17 19  1  0  0  0  0
 19 20  1  0  0  0  0
 20 21  1  0  0  0  0
 21 22  1  0  0  0  0
 22 23  1  0  0  0  0
 23 24  1  0  0  0  0
 24 25  1  0  0  0  0
 20 25  1  0  0  0  0
 20 26  1  0  0  0  0
 26 27  2  0  0  0  0
 26 28  1  0  0  0  0
 28 29  1  0  0  0  0
 29 30  1  0  0  0  0
 30 31  2  0  0  0  0
 30 32  1  0  0  0  0
 32 33  1  0  0  0  0
 33 34  1  0  0  0  0
 34 35  1  0  0  0  0
 35 36  1  0  0  0  0
 36 37  1  0  0  0  0
 37 38  1  0  0  0  0
 33 38  1  0  0  0  0
 38 39  1  0  0  0  0
 39 40  1  0  0  0  0
 32 40  1  0  0  0  0
 40 41  1  0  0  0  0
 41 42  2  0  0  0  0
 41 43  1  0  0  0  0
 44 43  1  6  0  0  0
 44 45  1  0  0  0  0
 45 46  1  0  0  0  0
 46 47  1  0  0  0  0
 47 48  1  0  0  0  0
 48 49  1  0  0  0  0
 44 50  1  0  0  0  0
 50 51  2  0  0  0  0
 50 52  1  0  0  0  0
 52 53  1  0  0  0  0
 53 54  1  0  0  0  0
 54 55  1  0  0  0  0
 55 56  1  0  0  0  0
 56 57  1  0  0  0  0
 57 58  1  0  0  0  0
 53 58  1  0  0  0  0
 53 59  1  0  0  0  0
 59 60  2  0  0  0  0
 59 61  1  0  0  0  0
 61 62  1  0  0  0  0
 62 63  1  0  0  0  0
 63 64  2  0  0  0  0
 63 65  1  0  0  0  0
 65 66  1  0  0  0  0
 66 67  1  0  0  0  0
 67 68  1  0  0  0  0
 68 69  1  0  0  0  0
 69 70  1  0  0  0  0
 70 71  1  0  0  0  0
 66 71  1  0  0  0  0
 71 72  1  0  0  0  0
 72 73  1  0  0  0  0
 65 73  1  0  0  0  0
 73 74  1  0  0  0  0
 74 75  2  0  0  0  0
 74 76  1  0  0  0  0
 77 76  1  6  0  0  0
 77 78  1  0  0  0  0
 78 79  1  0  0  0  0
 79 80  2  0  0  0  0
 80 81  1  0  0  0  0
 81 82  2  0  0  0  0
 82 83  1  0  0  0  0
 83 84  2  0  0  0  0
 79 84  1  0  0  0  0
 77 85  1  0  0  0  0
 85 86  2  0  0  0  0
 85 87  1  0  0  0  0
 87 88  1  0  0  0  0
 88 89  1  0  0  0  0
 89 90  1  0  0  0  0
 90 91  1  0  0  0  0
 91 92  1  0  0  0  0
 92 93  1  0  0  0  0
 88 93  1  0  0  0  0
 88 94  1  0  0  0  0
 94 95  2  0  0  0  0
 94 96  1  0  0  0  0
 96 97  1  0  0  0  0
 97 98  1  0  0  0  0
 98 99  2  0  0  0  0
 98100  1  0  0  0  0
100101  1  0  0  0  0
101102  1  0  0  0  0
102103  1  0  0  0  0
103104  1  0  0  0  0
104105  1  0  0  0  0
105106  1  0  0  0  0
101106  1  0  0  0  0
106107  1  0  0  0  0
107108  1  0  0  0  0
100108  1  0  0  0  0
108109  1  0  0  0  0
109110  2  0  0  0  0
109111  1  0  0  0  0
111112  1  0  0  0  0
112113  1  0  0  0  0
113114  2  0  0  0  0
113115  1  0  0  0  0
116115  1  1  0  0  0
116117  1  0  0  0  0
117118  1  0  0  0  0
118119  1  0  0  0  0
119120  1  0  0  0  0
120121  1  0  0  0  0
116122  1  0  0  0  0
122123  2  0  0  0  0
122124  1  0  0  0  0
124125  1  0  0  0  0
125126  1  0  0  0  0
126127  1  0  0  0  0
127128  1  0  0  0  0
128129  1  0  0  0  0
129130  1  0  0  0  0
125130  1  0  0  0  0
130131  1  0  0  0  0
131132  1  0  0  0  0
124132  1  0  0  0  0
132133  1  0  0  0  0
133134  2  0  0  0  0
133135  1  0  0  0  0
136135  1  6  0  0  0
136137  1  0  0  0  0
137138  1  0  0  0  0
138139  1  0  0  0  0
139140  1  0  0  0  0
140141  1  0  0  0  0
136142  1  0  0  0  0
142143  2  0  0  0  0
142144  1  0  0  0  0
145144  1  6  0  0  0
145146  1  0  0  0  0
146147  1  0  0  0  0
147148  1  0  0  0  0
148149  1  0  0  0  0
149150  1  0  0  0  0
145151  1  0  0  0  0
151152  2  0  0  0  0
151153  1  0  0  0  0
154153  1  1  0  0  0
154155  1  0  0  0  0
155156  1  0  0  0  0
156157  1  0  0  0  0
157158  1  0  0  0  0
158159  1  0  0  0  0
154160  1  0  0  0  0
160161  2  0  0  0  0
160162  1  0  0  0  0
163162  1  1  0  0  0
163164  1  0  0  0  0
164165  1  0  0  0  0
165166  1  0  0  0  0
166167  1  0  0  0  0
167168  1  0  0  0  0
163169  1  0  0  0  0
169170  2  0  0  0  0
169171  1  0  0  0  0
M  END
> <Molecule Name>
CHEMBL3824201

> <IUPAC>
N-[2-(2-{[(1S)-5-amino-1-[(1-{[2-(2-{[(1S)-1-({1-[(2-{2-[({[(2S)-6-amino-1-(2-{[(1S)-5-amino-1-{[(1S)-5-amino-1-{[(1S)-5-amino-1-{[(1S)-5-amino-1-carbamoylpentyl]carbamoyl}pentyl]carbamoyl}pentyl]carb
amoyl}pentyl]carbamoyl}-octahydro-1H-indol-1-yl)-1-oxohexan-2-yl]carbamoyl}methyl)carbamoyl]-octahydro-1H-indol-1-yl}-2-oxoethyl)carbamoyl]cyclohexyl}carbamoyl)-2-phenylethyl]carbamoyl}-octahydro-1H-i
ndol-1-yl)-2-oxoethyl]carbamoyl}cyclohexyl)carbamoyl]pentyl]carbamoyl}-octahydro-1H-indol-1-yl)-2-oxoethyl]-1-[(2S)-2-(2-acetamidoacetamido)-3-phenylpropanamido]cyclohexane-1-carboxamide

> <ChEMBL_Data_Neisseria_g: Qualifier_for_MIC_Ng>
=

> <ChEMBL_Data_Neisseria_g: ASSAY_CHEMBLID>
CHEMBL3825481

> <ChEMBL_Data_Neisseria_g: DESCRIPTION_of_Assay_Ng>
Antibacterial activity against Neisseria gonorrhoeae F-18 ATCC 49226 by two fold serial dilution method

> <ChEMBL_Data_Neisseria_g: PUBMED_ID>
27387357

> <ChEMBL_Data_Neisseria_g: YEAR>
2016

> <ChEMBL_Data_Neisseria_g: JOURNAL>
Bioorg. Med. Chem.

> <ChEMBL_Data_Neisseria_g: VOLUME>
24

> <ChEMBL_Data_Neisseria_g: FIRST_PAGE>
4056

> <ChEMBL_Data_Neisseria_g: MIC_vs_Neisseria_microg_per_mL>
50

> <ALogP>
1.087

> <Active>
0

> <Molecular_Weight>
2388.03

> <ChEMBL_Data_Neisseria_g: STRAIN_of_Ng>
F-18 ATCC 49226

$$$$

Generated by Molecular Materials Informatics

175187  0  0  0  0  0  0  0  0999 V2000
   13.1575   26.1351    0.0000 C   0  0  0  0  0  0  0  0  0  0  0  0
   11.6603   26.0459    0.0000 C   0  0  0  0  0  0  0  0  0  0  0  0
   10.8343   27.2978    0.0000 O   0  0  0  0  0  0  0  0  0  0  0  0
   10.9888   24.7044    0.0000 N   0  0  0  0  0  0  0  0  0  0  0  0
   11.8148   23.4524    0.0000 C   0  0  0  0  0  0  0  0  0  0  0  0
   11.1436   22.1110    0.0000 C   0  0  0  0  0  0  0  0  0  0  0  0
    9.8798   22.9188    0.0000 O   0  0  0  0  0  0  0  0  0  0  0  0
   11.9695   20.8590    0.0000 N   0  0  0  0  0  0  0  0  0  0  0  0
   11.2983   19.5176    0.0000 C   0  0  0  0  0  0  0  0  0  0  0  0
    9.8009   19.4283    0.0000 C   0  0  0  0  0  0  0  0  0  0  0  0
    8.9749   20.6803    0.0000 C   0  0  0  0  0  0  0  0  0  0  0  0
    7.4776   20.5910    0.0000 C   0  0  0  0  0  0  0  0  0  0  0  0
    6.6516   21.8432    0.0000 C   0  0  0  0  0  0  0  0  0  0  0  0
    7.3229   23.1844    0.0000 C   0  0  0  0  0  0  0  0  0  0  0  0
    8.8203   23.2737    0.0000 C   0  0  0  0  0  0  0  0  0  0  0  0
    9.6463   22.0217    0.0000 C   0  0  0  0  0  0  0  0  0  0  0  0
   12.1243   18.2656    0.0000 C   0  0  0  0  0  0  0  0  0  0  0  0
   13.6215   18.3549    0.0000 O   0  0  0  0  0  0  0  0  0  0  0  0
   11.4528   16.9242    0.0000 N   0  0  0  0  0  0  0  0  0  0  0  0
    9.9556   16.8349    0.0000 C   0  0  0  0  0  0  0  0  0  0  0  0
    8.5791   16.2389    0.0000 C   0  0  0  0  0  0  0  0  0  0  0  0
    7.3747   17.1329    0.0000 C   0  0  0  0  0  0  0  0  0  0  0  0
    7.5467   18.6231    0.0000 C   0  0  0  0  0  0  0  0  0  0  0  0
    8.9232   19.2191    0.0000 C   0  0  0  0  0  0  0  0  0  0  0  0
   10.1276   18.3249    0.0000 C   0  0  0  0  0  0  0  0  0  0  0  0
   10.3036   15.3759    0.0000 C   0  0  0  0  0  0  0  0  0  0  0  0
   11.7412   14.9477    0.0000 O   0  0  0  0  0  0  0  0  0  0  0  0
    9.2140   14.3450    0.0000 N   0  0  0  0  0  0  0  0  0  0  0  0
    9.5620   12.8859    0.0000 C   0  0  0  0  0  0  0  0  0  0  0  0
   10.9994   12.4577    0.0000 C   0  0  0  0  0  0  0  0  0  0  0  0
   12.0890   13.4886    0.0000 O   0  0  0  0  0  0  0  0  0  0  0  0
   11.3474   10.9987    0.0000 N   0  0  0  0  0  0  0  0  0  0  0  0
   12.7850   10.5705    0.0000 C   0  0  0  0  0  0  0  0  0  0  0  0
   13.1330    9.1114    0.0000 C   0  0  0  0  0  0  0  0  0  0  0  0
   14.5704    8.6832    0.0000 C   0  0  0  0  0  0  0  0  0  0  0  0
   14.9184    7.2242    0.0000 C   0  0  0  0  0  0  0  0  0  0  0  0
   13.8288    6.1933    0.0000 C   0  0  0  0  0  0  0  0  0  0  0  0
   12.3914    6.6215    0.0000 C   0  0  0  0  0  0  0  0  0  0  0  0
   12.0434    8.0805    0.0000 C   0  0  0  0  0  0  0  0  0  0  0  0
   10.6058    8.5087    0.0000 C   0  0  0  0  0  0  0  0  0  0  0  0
   10.2578    9.9678    0.0000 C   0  0  0  0  0  0  0  0  0  0  0  0
    8.8203   10.3959    0.0000 C   0  0  0  0  0  0  0  0  0  0  0  0
    8.4723   11.8550    0.0000 O   0  0  0  0  0  0  0  0  0  0  0  0
    7.7307    9.3651    0.0000 N   0  0  0  0  0  0  0  0  0  0  0  0
    6.2931    9.7934    0.0000 C   0  0  0  0  0  0  0  0  0  0  0  0
    5.9451   11.2525    0.0000 C   0  0  0  0  0  0  0  0  0  0  0  0
    4.5075   11.6806    0.0000 C   0  0  0  0  0  0  0  0  0  0  0  0
    4.1597   13.1397    0.0000 C   0  0  0  0  0  0  0  0  0  0  0  0
    2.7221   13.5679    0.0000 C   0  0  0  0  0  0  0  0  0  0  0  0
    2.3741   15.0270    0.0000 N   0  0  0  0  0  0  0  0  0  0  0  0
    5.2035    8.7625    0.0000 C   0  0  0  0  0  0  0  0  0  0  0  0
    5.5515    7.3035    0.0000 O   0  0  0  0  0  0  0  0  0  0  0  0
    3.7659    9.1907    0.0000 N   0  0  0  0  0  0  0  0  0  0  0  0
    2.6763    8.1598    0.0000 C   0  0  0  0  0  0  0  0  0  0  0  0
    1.2999    7.5638    0.0000 C   0  0  0  0  0  0  0  0  0  0  0  0
    1.1277    6.0737    0.0000 C   0  0  0  0  0  0  0  0  0  0  0  0
    2.3323    5.1797    0.0000 C   0  0  0  0  0  0  0  0  0  0  0  0
    3.7086    5.7757    0.0000 C   0  0  0  0  0  0  0  0  0  0  0  0
    3.8808    7.2658    0.0000 C   0  0  0  0  0  0  0  0  0  0  0  0
    1.8503    9.4118    0.0000 C   0  0  0  0  0  0  0  0  0  0  0  0
    2.5217   10.7532    0.0000 O   0  0  0  0  0  0  0  0  0  0  0  0
    0.3530    9.3225    0.0000 N   0  0  0  0  0  0  0  0  0  0  0  0
   -0.4730   10.5747    0.0000 C   0  0  0  0  0  0  0  0  0  0  0  0
   -1.9702   10.4852    0.0000 C   0  0  0  0  0  0  0  0  0  0  0  0
   -2.6417    9.1440    0.0000 O   0  0  0  0  0  0  0  0  0  0  0  0
   -2.7964   11.7374    0.0000 N   0  0  0  0  0  0  0  0  0  0  0  0
   -2.1249   13.0788    0.0000 C   0  0  0  0  0  0  0  0  0  0  0  0
   -2.9509   14.3308    0.0000 C   0  0  0  0  0  0  0  0  0  0  0  0
   -2.2797   15.6722    0.0000 C   0  0  0  0  0  0  0  0  0  0  0  0
   -3.1056   16.9242    0.0000 C   0  0  0  0  0  0  0  0  0  0  0  0
   -4.6029   16.8349    0.0000 C   0  0  0  0  0  0  0  0  0  0  0  0
   -5.2743   15.4935    0.0000 C   0  0  0  0  0  0  0  0  0  0  0  0
   -4.4484   14.2415    0.0000 C   0  0  0  0  0  0  0  0  0  0  0  0
   -5.1196   12.9001    0.0000 C   0  0  0  0  0  0  0  0  0  0  0  0
   -4.2936   11.6481    0.0000 C   0  0  0  0  0  0  0  0  0  0  0  0
   -4.9649   10.3067    0.0000 C   0  0  0  0  0  0  0  0  0  0  0  0
   -6.4623   10.2174    0.0000 O   0  0  0  0  0  0  0  0  0  0  0  0
   -4.1389    9.0547    0.0000 N   0  0  0  0  0  0  0  0  0  0  0  0
   -4.8102    7.7133    0.0000 C   0  0  0  0  0  0  0  0  0  0  0  0
   -6.3076    7.6240    0.0000 C   0  0  0  0  0  0  0  0  0  0  0  0
   -6.9789    6.2826    0.0000 C   0  0  0  0  0  0  0  0  0  0  0  0
   -6.1529    5.0306    0.0000 C   0  0  0  0  0  0  0  0  0  0  0  0
   -6.8241    3.6892    0.0000 C   0  0  0  0  0  0  0  0  0  0  0  0
   -8.3216    3.5999    0.0000 C   0  0  0  0  0  0  0  0  0  0  0  0
   -9.1475    4.8519    0.0000 C   0  0  0  0  0  0  0  0  0  0  0  0
   -8.4761    6.1933    0.0000 C   0  0  0  0  0  0  0  0  0  0  0  0
   -3.9842    6.4613    0.0000 C   0  0  0  0  0  0  0  0  0  0  0  0
   -2.4869    6.5506    0.0000 O   0  0  0  0  0  0  0  0  0  0  0  0
   -4.6556    5.1199    0.0000 N   0  0  0  0  0  0  0  0  0  0  0  0
   -3.8296    3.8679    0.0000 C   0  0  0  0  0  0  0  0  0  0  0  0
   -3.4816    2.4088    0.0000 C   0  0  0  0  0  0  0  0  0  0  0  0
   -2.0440    1.9805    0.0000 C   0  0  0  0  0  0  0  0  0  0  0  0
   -0.9544    3.0113    0.0000 C   0  0  0  0  0  0  0  0  0  0  0  0
   -1.3024    4.4704    0.0000 C   0  0  0  0  0  0  0  0  0  0  0  0
   -2.7400    4.8986    0.0000 C   0  0  0  0  0  0  0  0  0  0  0  0
   -5.2060    3.2717    0.0000 C   0  0  0  0  0  0  0  0  0  0  0  0
   -6.6372    2.8228    0.0000 O   0  0  0  0  0  0  0  0  0  0  0  0
   -5.3782    1.7817    0.0000 N   0  0  0  0  0  0  0  0  0  0  0  0
   -4.1736    0.8876    0.0000 C   0  0  0  0  0  0  0  0  0  0  0  0
   -4.3458   -0.6024    0.0000 C   0  0  0  0  0  0  0  0  0  0  0  0
   -3.1413   -1.4964    0.0000 O   0  0  0  0  0  0  0  0  0  0  0  0
   -5.7221   -1.1984    0.0000 N   0  0  0  0  0  0  0  0  0  0  0  0
   -6.9267   -0.3044    0.0000 C   0  0  0  0  0  0  0  0  0  0  0  0
   -8.3030   -0.9004    0.0000 C   0  0  0  0  0  0  0  0  0  0  0  0
   -9.5075   -0.0064    0.0000 C   0  0  0  0  0  0  0  0  0  0  0  0
  -10.8841   -0.6024    0.0000 C   0  0  0  0  0  0  0  0  0  0  0  0
  -11.0561   -2.0926    0.0000 C   0  0  0  0  0  0  0  0  0  0  0  0
   -9.8517   -2.9866    0.0000 C   0  0  0  0  0  0  0  0  0  0  0  0
   -8.4752   -2.3906    0.0000 C   0  0  0  0  0  0  0  0  0  0  0  0
   -7.2707   -3.2845    0.0000 C   0  0  0  0  0  0  0  0  0  0  0  0
   -5.8943   -2.6886    0.0000 C   0  0  0  0  0  0  0  0  0  0  0  0
   -4.6898   -3.5825    0.0000 C   0  0  0  0  0  0  0  0  0  0  0  0
   -4.8620   -5.0727    0.0000 O   0  0  0  0  0  0  0  0  0  0  0  0
   -3.3135   -2.9866    0.0000 N   0  0  0  0  0  0  0  0  0  0  0  0
   -2.1089   -3.8805    0.0000 C   0  0  0  0  0  0  0  0  0  0  0  0
   -0.7326   -3.2845    0.0000 C   0  0  0  0  0  0  0  0  0  0  0  0
   -0.5604   -1.7946    0.0000 O   0  0  0  0  0  0  0  0  0  0  0  0
    0.4719   -4.1785    0.0000 N   0  0  0  0  0  0  0  0  0  0  0  0
    1.8484   -3.5825    0.0000 C   0  0  0  0  0  0  0  0  0  0  0  0
    2.0204   -2.0926    0.0000 C   0  0  0  0  0  0  0  0  0  0  0  0
    0.8161   -1.1984    0.0000 C   0  0  0  0  0  0  0  0  0  0  0  0
    0.9881    0.2916    0.0000 C   0  0  0  0  0  0  0  0  0  0  0  0
   -0.2164    1.1857    0.0000 C   0  0  0  0  0  0  0  0  0  0  0  0
   -0.0442    2.6757    0.0000 N   0  0  0  0  0  0  0  0  0  0  0  0
    3.0528   -4.4765    0.0000 C   0  0  0  0  0  0  0  0  0  0  0  0
    2.8808   -5.9667    0.0000 O   0  0  0  0  0  0  0  0  0  0  0  0
    4.4293   -3.8805    0.0000 N   0  0  0  0  0  0  0  0  0  0  0  0
    4.6013   -2.3906    0.0000 C   0  0  0  0  0  0  0  0  0  0  0  0
    5.9778   -1.7946    0.0000 C   0  0  0  0  0  0  0  0  0  0  0  0
    6.1498   -0.3044    0.0000 C   0  0  0  0  0  0  0  0  0  0  0  0
    7.5263    0.2916    0.0000 C   0  0  0  0  0  0  0  0  0  0  0  0
    8.7307   -0.6024    0.0000 C   0  0  0  0  0  0  0  0  0  0  0  0
    8.5587   -2.0926    0.0000 C   0  0  0  0  0  0  0  0  0  0  0  0
    7.1822   -2.6886    0.0000 C   0  0  0  0  0  0  0  0  0  0  0  0
    7.0102   -4.1785    0.0000 C   0  0  0  0  0  0  0  0  0  0  0  0
    5.6337   -4.7747    0.0000 C   0  0  0  0  0  0  0  0  0  0  0  0
    5.4617   -6.2647    0.0000 C   0  0  0  0  0  0  0  0  0  0  0  0
    4.0851   -6.8607    0.0000 O   0  0  0  0  0  0  0  0  0  0  0  0
    6.6660   -7.1587    0.0000 N   0  0  0  0  0  0  0  0  0  0  0  0
    6.4940   -8.6488    0.0000 C   0  0  0  0  0  0  0  0  0  0  0  0
    5.1175   -9.2448    0.0000 C   0  0  0  0  0  0  0  0  0  0  0  0
    4.9455  -10.7350    0.0000 C   0  0  0  0  0  0  0  0  0  0  0  0
    3.5690  -11.3309    0.0000 C   0  0  0  0  0  0  0  0  0  0  0  0
    3.3970  -12.8211    0.0000 C   0  0  0  0  0  0  0  0  0  0  0  0
    2.0204  -13.4171    0.0000 N   0  0  0  0  0  0  0  0  0  0  0  0
    7.6983   -9.5428    0.0000 C   0  0  0  0  0  0  0  0  0  0  0  0
    7.5263  -11.0330    0.0000 O   0  0  0  0  0  0  0  0  0  0  0  0
    9.0749   -8.9468    0.0000 N   0  0  0  0  0  0  0  0  0  0  0  0
   10.2792   -9.8408    0.0000 C   0  0  0  0  0  0  0  0  0  0  0  0
   10.1072  -11.3309    0.0000 C   0  0  0  0  0  0  0  0  0  0  0  0
   11.3116  -12.2249    0.0000 C   0  0  0  0  0  0  0  0  0  0  0  0
   11.1396  -13.7151    0.0000 C   0  0  0  0  0  0  0  0  0  0  0  0
   12.3439  -14.6091    0.0000 C   0  0  0  0  0  0  0  0  0  0  0  0
   12.1719  -16.0992    0.0000 N   0  0  0  0  0  0  0  0  0  0  0  0
   11.6557   -9.2448    0.0000 C   0  0  0  0  0  0  0  0  0  0  0  0
   11.8277   -7.7548    0.0000 O   0  0  0  0  0  0  0  0  0  0  0  0
   12.8601  -10.1390    0.0000 N   0  0  0  0  0  0  0  0  0  0  0  0
   14.2366   -9.5428    0.0000 C   0  0  0  0  0  0  0  0  0  0  0  0
   14.4086   -8.0528    0.0000 C   0  0  0  0  0  0  0  0  0  0  0  0
   13.2043   -7.1587    0.0000 C   0  0  0  0  0  0  0  0  0  0  0  0
   13.3762   -5.6687    0.0000 C   0  0  0  0  0  0  0  0  0  0  0  0
   12.1719   -4.7747    0.0000 C   0  0  0  0  0  0  0  0  0  0  0  0
   12.3439   -3.2845    0.0000 N   0  0  0  0  0  0  0  0  0  0  0  0
   15.4409  -10.4370    0.0000 C   0  0  0  0  0  0  0  0  0  0  0  0
   15.2689  -11.9269    0.0000 O   0  0  0  0  0  0  0  0  0  0  0  0
   16.8175   -9.8408    0.0000 N   0  0  0  0  0  0  0  0  0  0  0  0
   18.0220  -10.7350    0.0000 C   0  0  0  0  0  0  0  0  0  0  0  0
   19.3983  -10.1390    0.0000 C   0  0  0  0  0  0  0  0  0  0  0  0
   20.6028  -11.0330    0.0000 C   0  0  0  0  0  0  0  0  0  0  0  0
   21.9792  -10.4370    0.0000 C   0  0  0  0  0  0  0  0  0  0  0  0
   23.1837  -11.3309    0.0000 C   0  0  0  0  0  0  0  0  0  0  0  0
   24.5601  -10.7350    0.0000 N   0  0  0  0  0  0  0  0  0  0  0  0
   17.8498  -12.2249    0.0000 C   0  0  0  0  0  0  0  0  0  0  0  0
   19.0543  -13.1191    0.0000 O   0  0  0  0  0  0  0  0  0  0  0  0
   16.4733  -12.8211    0.0000 N   0  0  0  0  0  0  0  0  0  0  0  0
  1  2  1  0  0  0  0
  2  3  2  0  0  0  0
  2  4  1  0  0  0  0
  4  5  1  0  0  0  0
  5  6  1  0  0  0  0
  6  7  2  0  0  0  0
  6  8  1  0  0  0  0
  9  8  1  6  0  0  0
  9 10  1  0  0  0  0
 10 11  1  0  0  0  0
 11 12  2  0  0  0  0
 12 13  1  0  0  0  0
 13 14  2  0  0  0  0
 14 15  1  0  0  0  0
 15 16  2  0  0  0  0
 11 16  1  0  0  0  0
  9 17  1  0  0  0  0
 17 18  2  0  0  0  0
 17 19  1  0  0  0  0
 19 20  1  0  0  0  0
 20 21  1  0  0  0  0
 21 22  1  0  0  0  0
 22 23  1  0  0  0  0
 23 24  1  0  0  0  0
 24 25  1  0  0  0  0
 20 25  1  0  0  0  0
 20 26  1  0  0  0  0
 26 27  2  0  0  0  0
 26 28  1  0  0  0  0
 28 29  1  0  0  0  0
 29 30  1  0  0  0  0
 30 31  2  0  0  0  0
 30 32  1  0  0  0  0
 32 33  1  0  0  0  0
 33 34  1  0  0  0  0
 34 35  2  0  0  0  0
 35 36  1  0  0  0  0
 36 37  2  0  0  0  0
 37 38  1  0  0  0  0
 38 39  2  0  0  0  0
 34 39  1  0  0  0  0
 39 40  1  0  0  0  0
 40 41  1  0  0  0  0
 32 41  1  0  0  0  0
 41 42  1  0  0  0  0
 42 43  2  0  0  0  0
 42 44  1  0  0  0  0
 45 44  1  6  0  0  0
 45 46  1  0  0  0  0
 46 47  1  0  0  0  0
 47 48  1  0  0  0  0
 48 49  1  0  0  0  0
 49 50  1  0  0  0  0
 45 51  1  0  0  0  0
 51 52  2  0  0  0  0
 51 53  1  0  0  0  0
 53 54  1  0  0  0  0
 54 55  1  0  0  0  0
 55 56  1  0  0  0  0
 56 57  1  0  0  0  0
 57 58  1  0  0  0  0
 58 59  1  0  0  0  0
 54 59  1  0  0  0  0
 54 60  1  0  0  0  0
 60 61  2  0  0  0  0
 60 62  1  0  0  0  0
 62 63  1  0  0  0  0
 63 64  1  0  0  0  0
 64 65  2  0  0  0  0
 64 66  1  0  0  0  0
 66 67  1  0  0  0  0
 67 68  1  0  0  0  0
 68 69  2  0  0  0  0
 69 70  1  0  0  0  0
 70 71  2  0  0  0  0
 71 72  1  0  0  0  0
 72 73  2  0  0  0  0
 68 73  1  0  0  0  0
 73 74  1  0  0  0  0
 74 75  1  0  0  0  0
 66 75  1  0  0  0  0
 75 76  1  0  0  0  0
 76 77  2  0  0  0  0
 76 78  1  0  0  0  0
 79 78  1  6  0  0  0
 79 80  1  0  0  0  0
 80 81  1  0  0  0  0
 81 82  2  0  0  0  0
 82 83  1  0  0  0  0
 83 84  2  0  0  0  0
 84 85  1  0  0  0  0
 85 86  2  0  0  0  0
 81 86  1  0  0  0  0
 79 87  1  0  0  0  0
 87 88  2  0  0  0  0
 87 89  1  0  0  0  0
 89 90  1  0  0  0  0
 90 91  1  0  0  0  0
 91 92  1  0  0  0  0
 92 93  1  0  0  0  0
 93 94  1  0  0  0  0
 94 95  1  0  0  0  0
 90 95  1  0  0  0  0
 90 96  1  0  0  0  0
 96 97  2  0  0  0  0
 96 98  1  0  0  0  0
 98 99  1  0  0  0  0
 99100  1  0  0  0  0
100101  2  0  0  0  0
100102  1  0  0  0  0
102103  1  0  0  0  0
103104  1  0  0  0  0
104105  2  0  0  0  0
105106  1  0  0  0  0
106107  2  0  0  0  0
107108  1  0  0  0  0
108109  2  0  0  0  0
104109  1  0  0  0  0
109110  1  0  0  0  0
110111  1  0  0  0  0
102111  1  0  0  0  0
111112  1  0  0  0  0
112113  2  0  0  0  0
112114  1  0  0  0  0
114115  1  0  0  0  0
115116  1  0  0  0  0
116117  2  0  0  0  0
116118  1  0  0  0  0
119118  1  1  0  0  0
119120  1  0  0  0  0
120121  1  0  0  0  0
121122  1  0  0  0  0
122123  1  0  0  0  0
123124  1  0  0  0  0
119125  1  0  0  0  0
125126  2  0  0  0  0
125127  1  0  0  0  0
127128  1  0  0  0  0
128129  1  0  0  0  0
129130  2  0  0  0  0
130131  1  0  0  0  0
131132  2  0  0  0  0
132133  1  0  0  0  0
133134  2  0  0  0  0
129134  1  0  0  0  0
134135  1  0  0  0  0
135136  1  0  0  0  0
127136  1  0  0  0  0
136137  1  0  0  0  0
137138  2  0  0  0  0
137139  1  0  0  0  0
140139  1  6  0  0  0
140141  1  0  0  0  0
141142  1  0  0  0  0
142143  1  0  0  0  0
143144  1  0  0  0  0
144145  1  0  0  0  0
140146  1  0  0  0  0
146147  2  0  0  0  0
146148  1  0  0  0  0
149148  1  6  0  0  0
149150  1  0  0  0  0
150151  1  0  0  0  0
151152  1  0  0  0  0
152153  1  0  0  0  0
153154  1  0  0  0  0
149155  1  0  0  0  0
155156  2  0  0  0  0
155157  1  0  0  0  0
158157  1  1  0  0  0
158159  1  0  0  0  0
159160  1  0  0  0  0
160161  1  0  0  0  0
161162  1  0  0  0  0
162163  1  0  0  0  0
158164  1  0  0  0  0
164165  2  0  0  0  0
164166  1  0  0  0  0
167166  1  1  0  0  0
167168  1  0  0  0  0
168169  1  0  0  0  0
169170  1  0  0  0  0
170171  1  0  0  0  0
171172  1  0  0  0  0
167173  1  0  0  0  0
173174  2  0  0  0  0
173175  1  0  0  0  0
M  END
> <Molecule Name>
CHEMBL3824016

> <IUPAC>
N-[2-(3-{[(1S)-5-amino-1-[(1-{[2-(3-{[(1S)-1-({1-[(2-{3-[({[(2S)-6-amino-1-(3-{[(1S)-5-amino-1-{[(1S)-5-amino-1-{[(1S)-5-amino-1-{[(1S)-5-amino-1-carbamoylpentyl]carbamoyl}pentyl]carbamoyl}pentyl]carb
amoyl}pentyl]carbamoyl}-1,2,3,4-tetrahydroisoquinolin-2-yl)-1-oxohexan-2-yl]carbamoyl}methyl)carbamoyl]-1,2,3,4-tetrahydroisoquinolin-2-yl}-2-oxoethyl)carbamoyl]cyclohexyl}carbamoyl)-2-phenylethyl]car
bamoyl}-1,2,3,4-tetrahydroisoquinolin-2-yl)-2-oxoethyl]carbamoyl}cyclohexyl)carbamoyl]pentyl]carbamoyl}-1,2,3,4-tetrahydroisoquinolin-2-yl)-2-oxoethyl]-1-[(2S)-2-(2-acetamidoacetamido)-3-phenylpropana
mido]cyclohexane-1-carboxamide

> <ChEMBL_Data_Neisseria_g: Qualifier_for_MIC_Ng>
=

> <ChEMBL_Data_Neisseria_g: ASSAY_CHEMBLID>
CHEMBL3825481

> <ChEMBL_Data_Neisseria_g: DESCRIPTION_of_Assay_Ng>
Antibacterial activity against Neisseria gonorrhoeae F-18 ATCC 49226 by two fold serial dilution method

> <ChEMBL_Data_Neisseria_g: PUBMED_ID>
27387357

> <ChEMBL_Data_Neisseria_g: YEAR>
2016

> <ChEMBL_Data_Neisseria_g: JOURNAL>
Bioorg. Med. Chem.

> <ChEMBL_Data_Neisseria_g: VOLUME>
24

> <ChEMBL_Data_Neisseria_g: FIRST_PAGE>
4056

> <ChEMBL_Data_Neisseria_g: MIC_vs_Neisseria_microg_per_mL>
100

> <ALogP>
0.655

> <Active>
0

> <Molecular_Weight>
2419.95

> <ChEMBL_Data_Neisseria_g: STRAIN_of_Ng>
F-18 ATCC 49226

$$$$

Generated by Molecular Materials Informatics

156164  0  0  0  0  0  0  0  0999 V2000
   13.6360    2.7190    0.0000 C   0  0  0  0  0  0  0  0  0  0  0  0
   12.2674    3.3330    0.0000 C   0  0  0  0  0  0  0  0  0  0  0  0
   12.0887    4.6146    0.0000 O   0  0  0  0  0  0  0  0  0  0  0  0
   11.0514    2.4548    0.0000 N   0  0  0  0  0  0  0  0  0  0  0  0
    9.6829    3.0688    0.0000 C   0  0  0  0  0  0  0  0  0  0  0  0
    8.4669    2.1904    0.0000 C   0  0  0  0  0  0  0  0  0  0  0  0
    8.5407    0.0668    0.0000 O   0  0  0  0  0  0  0  0  0  0  0  0
    7.0983    2.8044    0.0000 N   0  0  0  0  0  0  0  0  0  0  0  0
    5.8822    1.9263    0.0000 C   0  0  0  0  0  0  0  0  0  0  0  0
    6.0347    0.4341    0.0000 C   0  0  0  0  0  0  0  0  0  0  0  0
    7.4034   -0.1799    0.0000 C   0  0  0  0  0  0  0  0  0  0  0  0
    8.6194    0.6983    0.0000 C   0  0  0  0  0  0  0  0  0  0  0  0
    9.9880    0.0843    0.0000 C   0  0  0  0  0  0  0  0  0  0  0  0
   10.1405   -1.4079    0.0000 C   0  0  0  0  0  0  0  0  0  0  0  0
    8.9245   -2.2861    0.0000 C   0  0  0  0  0  0  0  0  0  0  0  0
    7.5560   -1.6721    0.0000 C   0  0  0  0  0  0  0  0  0  0  0  0
    4.5136    2.5403    0.0000 C   0  0  0  0  0  0  0  0  0  0  0  0
    4.3874    4.2430    0.0000 O   0  0  0  0  0  0  0  0  0  0  0  0
    3.2976    1.6621    0.0000 N   0  0  0  0  0  0  0  0  0  0  0  0
    1.9291    2.2761    0.0000 C   0  0  0  0  0  0  0  0  0  0  0  0
    0.7180    3.1612    0.0000 C   0  0  0  0  0  0  0  0  0  0  0  0
   -0.4980    2.2830    0.0000 C   0  0  0  0  0  0  0  0  0  0  0  0
   -0.0386    0.8552    0.0000 C   0  0  0  0  0  0  0  0  0  0  0  0
    1.4614    0.8508    0.0000 C   0  0  0  0  0  0  0  0  0  0  0  0
    2.6827    3.5730    0.0000 C   0  0  0  0  0  0  0  0  0  0  0  0
    4.1827    3.5686    0.0000 O   0  0  0  0  0  0  0  0  0  0  0  0
    1.9365    4.8741    0.0000 N   0  0  0  0  0  0  0  0  0  0  0  0
    2.6902    6.1710    0.0000 C   0  0  0  0  0  0  0  0  0  0  0  0
    1.9438    7.4722    0.0000 C   0  0  0  0  0  0  0  0  0  0  0  0
    0.4438    7.4764    0.0000 O   0  0  0  0  0  0  0  0  0  0  0  0
    2.6976    8.7692    0.0000 N   0  0  0  0  0  0  0  0  0  0  0  0
    1.9513   10.0702    0.0000 C   0  0  0  0  0  0  0  0  0  0  0  0
    1.4918   11.4982    0.0000 C   0  0  0  0  0  0  0  0  0  0  0  0
   -0.0082   11.5024    0.0000 C   0  0  0  0  0  0  0  0  0  0  0  0
   -0.4758   10.0772    0.0000 C   0  0  0  0  0  0  0  0  0  0  0  0
    0.7353    9.1921    0.0000 C   0  0  0  0  0  0  0  0  0  0  0  0
    3.3232   10.6764    0.0000 C   0  0  0  0  0  0  0  0  0  0  0  0
    3.4843   12.1679    0.0000 O   0  0  0  0  0  0  0  0  0  0  0  0
    4.5343    9.7913    0.0000 N   0  0  0  0  0  0  0  0  0  0  0  0
    5.9063   10.3975    0.0000 C   0  0  0  0  0  0  0  0  0  0  0  0
    6.1694   11.8742    0.0000 C   0  0  0  0  0  0  0  0  0  0  0  0
    5.0222   12.8404    0.0000 C   0  0  0  0  0  0  0  0  0  0  0  0
    5.2852   14.3173    0.0000 C   0  0  0  0  0  0  0  0  0  0  0  0
    4.1378   15.2835    0.0000 C   0  0  0  0  0  0  0  0  0  0  0  0
    4.4009   16.7602    0.0000 N   0  0  0  0  0  0  0  0  0  0  0  0
    7.2642    9.4052    0.0000 C   0  0  0  0  0  0  0  0  0  0  0  0
    6.7643    7.7441    0.0000 O   0  0  0  0  0  0  0  0  0  0  0  0
    8.4641    9.9419    0.0000 N   0  0  0  0  0  0  0  0  0  0  0  0
    9.6114    8.9755    0.0000 C   0  0  0  0  0  0  0  0  0  0  0  0
   10.5329    7.7919    0.0000 C   0  0  0  0  0  0  0  0  0  0  0  0
   11.9432    8.3024    0.0000 C   0  0  0  0  0  0  0  0  0  0  0  0
   11.8936    9.8017    0.0000 C   0  0  0  0  0  0  0  0  0  0  0  0
   10.4525   10.2177    0.0000 C   0  0  0  0  0  0  0  0  0  0  0  0
    8.5307    7.9355    0.0000 C   0  0  0  0  0  0  0  0  0  0  0  0
    8.8909    6.4795    0.0000 O   0  0  0  0  0  0  0  0  0  0  0  0
    7.0894    8.3515    0.0000 N   0  0  0  0  0  0  0  0  0  0  0  0
    6.7292    9.8077    0.0000 C   0  0  0  0  0  0  0  0  0  0  0  0
    7.8100   10.8477    0.0000 C   0  0  0  0  0  0  0  0  0  0  0  0
    7.4498   12.3039    0.0000 O   0  0  0  0  0  0  0  0  0  0  0  0
    9.2512   10.4317    0.0000 N   0  0  0  0  0  0  0  0  0  0  0  0
   10.3321   11.4717    0.0000 C   0  0  0  0  0  0  0  0  0  0  0  0
   11.6056   12.2644    0.0000 C   0  0  0  0  0  0  0  0  0  0  0  0
   11.2452   13.7204    0.0000 C   0  0  0  0  0  0  0  0  0  0  0  0
    9.7491   13.8277    0.0000 C   0  0  0  0  0  0  0  0  0  0  0  0
    9.1847   12.4381    0.0000 C   0  0  0  0  0  0  0  0  0  0  0  0
   11.2534   10.2881    0.0000 C   0  0  0  0  0  0  0  0  0  0  0  0
   12.7392   10.4942    0.0000 O   0  0  0  0  0  0  0  0  0  0  0  0
   10.6891    8.8982    0.0000 N   0  0  0  0  0  0  0  0  0  0  0  0
   11.6105    7.7146    0.0000 C   0  0  0  0  0  0  0  0  0  0  0  0
   13.0961    7.9208    0.0000 C   0  0  0  0  0  0  0  0  0  0  0  0
   14.0176    6.7372    0.0000 C   0  0  0  0  0  0  0  0  0  0  0  0
   15.5034    6.9432    0.0000 C   0  0  0  0  0  0  0  0  0  0  0  0
   16.4247    5.7595    0.0000 C   0  0  0  0  0  0  0  0  0  0  0  0
   15.8603    4.3697    0.0000 C   0  0  0  0  0  0  0  0  0  0  0  0
   14.3745    4.1637    0.0000 C   0  0  0  0  0  0  0  0  0  0  0  0
   13.4532    5.3473    0.0000 C   0  0  0  0  0  0  0  0  0  0  0  0
   11.0461    6.3250    0.0000 C   0  0  0  0  0  0  0  0  0  0  0  0
   11.9674    5.1412    0.0000 O   0  0  0  0  0  0  0  0  0  0  0  0
    9.5603    6.1188    0.0000 N   0  0  0  0  0  0  0  0  0  0  0  0
    8.9960    4.7290    0.0000 C   0  0  0  0  0  0  0  0  0  0  0  0
    8.1549    3.4870    0.0000 C   0  0  0  0  0  0  0  0  0  0  0  0
    9.0763    2.3033    0.0000 C   0  0  0  0  0  0  0  0  0  0  0  0
   10.4867    2.8139    0.0000 C   0  0  0  0  0  0  0  0  0  0  0  0
   10.4371    4.3130    0.0000 C   0  0  0  0  0  0  0  0  0  0  0  0
    7.6727    5.4355    0.0000 C   0  0  0  0  0  0  0  0  0  0  0  0
    7.6231    6.9348    0.0000 O   0  0  0  0  0  0  0  0  0  0  0  0
    6.3992    4.6430    0.0000 N   0  0  0  0  0  0  0  0  0  0  0  0
    5.0762    5.3495    0.0000 C   0  0  0  0  0  0  0  0  0  0  0  0
    3.8025    4.5570    0.0000 C   0  0  0  0  0  0  0  0  0  0  0  0
    3.8260    2.8472    0.0000 O   0  0  0  0  0  0  0  0  0  0  0  0
    2.4794    5.2635    0.0000 N   0  0  0  0  0  0  0  0  0  0  0  0
    1.2060    4.4708    0.0000 C   0  0  0  0  0  0  0  0  0  0  0  0
    0.1251    3.4308    0.0000 C   0  0  0  0  0  0  0  0  0  0  0  0
   -1.1980    4.1373    0.0000 C   0  0  0  0  0  0  0  0  0  0  0  0
   -0.9349    5.6141    0.0000 C   0  0  0  0  0  0  0  0  0  0  0  0
    0.5509    5.8203    0.0000 C   0  0  0  0  0  0  0  0  0  0  0  0
    2.1274    3.2872    0.0000 C   0  0  0  0  0  0  0  0  0  0  0  0
    3.6131    3.4933    0.0000 O   0  0  0  0  0  0  0  0  0  0  0  0
    1.5629    1.8975    0.0000 N   0  0  0  0  0  0  0  0  0  0  0  0
    2.4843    0.7137    0.0000 C   0  0  0  0  0  0  0  0  0  0  0  0
    1.9200   -0.6759    0.0000 C   0  0  0  0  0  0  0  0  0  0  0  0
    0.4342   -0.8821    0.0000 O   0  0  0  0  0  0  0  0  0  0  0  0
    2.8413   -1.8596    0.0000 N   0  0  0  0  0  0  0  0  0  0  0  0
    2.2769   -3.2494    0.0000 C   0  0  0  0  0  0  0  0  0  0  0  0
    0.7913   -3.4556    0.0000 C   0  0  0  0  0  0  0  0  0  0  0  0
    0.2267   -4.8454    0.0000 C   0  0  0  0  0  0  0  0  0  0  0  0
   -1.2589   -5.0514    0.0000 C   0  0  0  0  0  0  0  0  0  0  0  0
   -1.8233   -6.4412    0.0000 C   0  0  0  0  0  0  0  0  0  0  0  0
   -3.3091   -6.6474    0.0000 N   0  0  0  0  0  0  0  0  0  0  0  0
    3.1983   -4.4330    0.0000 C   0  0  0  0  0  0  0  0  0  0  0  0
    4.8945   -4.2532    0.0000 O   0  0  0  0  0  0  0  0  0  0  0  0
    2.6340   -5.8228    0.0000 N   0  0  0  0  0  0  0  0  0  0  0  0
    3.5552   -7.0065    0.0000 C   0  0  0  0  0  0  0  0  0  0  0  0
    4.7027   -7.9726    0.0000 C   0  0  0  0  0  0  0  0  0  0  0  0
    4.1383   -9.3624    0.0000 C   0  0  0  0  0  0  0  0  0  0  0  0
    2.6422   -9.2552    0.0000 C   0  0  0  0  0  0  0  0  0  0  0  0
    2.2818   -7.7992    0.0000 C   0  0  0  0  0  0  0  0  0  0  0  0
    4.6362   -5.9665    0.0000 C   0  0  0  0  0  0  0  0  0  0  0  0
    4.2760   -4.5103    0.0000 O   0  0  0  0  0  0  0  0  0  0  0  0
    6.0774   -6.3825    0.0000 N   0  0  0  0  0  0  0  0  0  0  0  0
    7.1582   -5.3425    0.0000 C   0  0  0  0  0  0  0  0  0  0  0  0
    6.7980   -3.8863    0.0000 C   0  0  0  0  0  0  0  0  0  0  0  0
    5.3567   -3.4703    0.0000 C   0  0  0  0  0  0  0  0  0  0  0  0
    4.9965   -2.0143    0.0000 C   0  0  0  0  0  0  0  0  0  0  0  0
    3.5552   -1.5981    0.0000 C   0  0  0  0  0  0  0  0  0  0  0  0
    3.1951   -0.1421    0.0000 N   0  0  0  0  0  0  0  0  0  0  0  0
    8.5994   -5.7585    0.0000 C   0  0  0  0  0  0  0  0  0  0  0  0
    8.9596   -7.2145    0.0000 O   0  0  0  0  0  0  0  0  0  0  0  0
    9.6801   -4.7183    0.0000 N   0  0  0  0  0  0  0  0  0  0  0  0
   11.1214   -5.1345    0.0000 C   0  0  0  0  0  0  0  0  0  0  0  0
   11.4816   -6.5905    0.0000 C   0  0  0  0  0  0  0  0  0  0  0  0
   12.9229   -7.0065    0.0000 C   0  0  0  0  0  0  0  0  0  0  0  0
   13.2830   -8.4626    0.0000 C   0  0  0  0  0  0  0  0  0  0  0  0
   14.7243   -8.8786    0.0000 C   0  0  0  0  0  0  0  0  0  0  0  0
   15.0845  -10.3346    0.0000 N   0  0  0  0  0  0  0  0  0  0  0  0
   12.2021   -4.0943    0.0000 C   0  0  0  0  0  0  0  0  0  0  0  0
   11.8420   -2.6383    0.0000 O   0  0  0  0  0  0  0  0  0  0  0  0
   13.6434   -4.5103    0.0000 N   0  0  0  0  0  0  0  0  0  0  0  0
   14.7243   -3.4703    0.0000 C   0  0  0  0  0  0  0  0  0  0  0  0
   14.3640   -2.0143    0.0000 C   0  0  0  0  0  0  0  0  0  0  0  0
   15.4449   -0.9741    0.0000 C   0  0  0  0  0  0  0  0  0  0  0  0
   16.8860   -1.3901    0.0000 C   0  0  0  0  0  0  0  0  0  0  0  0
   17.9669   -0.3501    0.0000 C   0  0  0  0  0  0  0  0  0  0  0  0
   17.6065    1.1059    0.0000 N   0  0  0  0  0  0  0  0  0  0  0  0
   16.1654   -3.8863    0.0000 C   0  0  0  0  0  0  0  0  0  0  0  0
   16.5258   -5.3425    0.0000 O   0  0  0  0  0  0  0  0  0  0  0  0
   17.2463   -2.8463    0.0000 N   0  0  0  0  0  0  0  0  0  0  0  0
   18.6874   -3.2623    0.0000 C   0  0  0  0  0  0  0  0  0  0  0  0
   19.7683   -2.2223    0.0000 C   0  0  0  0  0  0  0  0  0  0  0  0
   21.2094   -2.6383    0.0000 C   0  0  0  0  0  0  0  0  0  0  0  0
   22.2903   -1.5981    0.0000 C   0  0  0  0  0  0  0  0  0  0  0  0
   23.7314   -2.0143    0.0000 C   0  0  0  0  0  0  0  0  0  0  0  0
   24.8123   -0.9741    0.0000 N   0  0  0  0  0  0  0  0  0  0  0  0
   19.0478   -4.7183    0.0000 C   0  0  0  0  0  0  0  0  0  0  0  0
   20.4889   -5.1345    0.0000 O   0  0  0  0  0  0  0  0  0  0  0  0
   17.9669   -5.7585    0.0000 N   0  0  0  0  0  0  0  0  0  0  0  0
  1  2  1  0  0  0  0
  2  3  2  0  0  0  0
  2  4  1  0  0  0  0
  4  5  1  0  0  0  0
  5  6  1  0  0  0  0
  6  7  2  0  0  0  0
  6  8  1  0  0  0  0
  9  8  1  1  0  0  0
  9 10  1  0  0  0  0
 10 11  1  0  0  0  0
 11 12  2  0  0  0  0
 12 13  1  0  0  0  0
 13 14  2  0  0  0  0
 14 15  1  0  0  0  0
 15 16  2  0  0  0  0
 11 16  1  0  0  0  0
  9 17  1  0  0  0  0
 17 18  2  0  0  0  0
 17 19  1  0  0  0  0
 19 20  1  0  0  0  0
 20 21  1  0  0  0  0
 21 22  1  0  0  0  0
 22 23  1  0  0  0  0
 23 24  1  0  0  0  0
 20 24  1  0  0  0  0
 20 25  1  0  0  0  0
 25 26  2  0  0  0  0
 25 27  1  0  0  0  0
 27 28  1  0  0  0  0
 28 29  1  0  0  0  0
 29 30  2  0  0  0  0
 29 31  1  0  0  0  0
 31 32  1  0  0  0  0
 32 33  1  0  0  0  0
 33 34  1  0  0  0  0
 34 35  1  0  0  0  0
 35 36  1  0  0  0  0
 32 36  1  0  0  0  0
 32 37  1  0  0  0  0
 37 38  2  0  0  0  0
 37 39  1  0  0  0  0
 40 39  1  1  0  0  0
 40 41  1  0  0  0  0
 41 42  1  0  0  0  0
 42 43  1  0  0  0  0
 43 44  1  0  0  0  0
 44 45  1  0  0  0  0
 40 46  1  0  0  0  0
 46 47  2  0  0  0  0
 46 48  1  0  0  0  0
 48 49  1  0  0  0  0
 49 50  1  0  0  0  0
 50 51  1  0  0  0  0
 51 52  1  0  0  0  0
 52 53  1  0  0  0  0
 49 53  1  0  0  0  0
 49 54  1  0  0  0  0
 54 55  2  0  0  0  0
 54 56  1  0  0  0  0
 56 57  1  0  0  0  0
 57 58  1  0  0  0  0
 58 59  2  0  0  0  0
 58 60  1  0  0  0  0
 60 61  1  0  0  0  0
 61 62  1  0  0  0  0
 62 63  1  0  0  0  0
 63 64  1  0  0  0  0
 64 65  1  0  0  0  0
 61 65  1  0  0  0  0
 61 66  1  0  0  0  0
 66 67  2  0  0  0  0
 66 68  1  0  0  0  0
 69 68  1  1  0  0  0
 69 70  1  0  0  0  0
 70 71  1  0  0  0  0
 71 72  2  0  0  0  0
 72 73  1  0  0  0  0
 73 74  2  0  0  0  0
 74 75  1  0  0  0  0
 75 76  2  0  0  0  0
 71 76  1  0  0  0  0
 69 77  1  0  0  0  0
 77 78  2  0  0  0  0
 77 79  1  0  0  0  0
 79 80  1  0  0  0  0
 80 81  1  0  0  0  0
 81 82  1  0  0  0  0
 82 83  1  0  0  0  0
 83 84  1  0  0  0  0
 80 84  1  0  0  0  0
 80 85  1  0  0  0  0
 85 86  2  0  0  0  0
 85 87  1  0  0  0  0
 87 88  1  0  0  0  0
 88 89  1  0  0  0  0
 89 90  2  0  0  0  0
 89 91  1  0  0  0  0
 91 92  1  0  0  0  0
 92 93  1  0  0  0  0
 93 94  1  0  0  0  0
 94 95  1  0  0  0  0
 95 96  1  0  0  0  0
 92 96  1  0  0  0  0
 92 97  1  0  0  0  0
 97 98  2  0  0  0  0
 97 99  1  0  0  0  0
 99100  1  0  0  0  0
100101  1  0  0  0  0
101102  2  0  0  0  0
101103  1  0  0  0  0
104103  1  6  0  0  0
104105  1  0  0  0  0
105106  1  0  0  0  0
106107  1  0  0  0  0
107108  1  0  0  0  0
108109  1  0  0  0  0
104110  1  0  0  0  0
110111  2  0  0  0  0
110112  1  0  0  0  0
112113  1  0  0  0  0
113114  1  0  0  0  0
114115  1  0  0  0  0
115116  1  0  0  0  0
116117  1  0  0  0  0
113117  1  0  0  0  0
113118  1  0  0  0  0
118119  2  0  0  0  0
118120  1  0  0  0  0
121120  1  1  0  0  0
121122  1  0  0  0  0
122123  1  0  0  0  0
123124  1  0  0  0  0
124125  1  0  0  0  0
125126  1  0  0  0  0
121127  1  0  0  0  0
127128  2  0  0  0  0
127129  1  0  0  0  0
130129  1  6  0  0  0
130131  1  0  0  0  0
131132  1  0  0  0  0
132133  1  0  0  0  0
133134  1  0  0  0  0
134135  1  0  0  0  0
130136  1  0  0  0  0
136137  2  0  0  0  0
136138  1  0  0  0  0
139138  1  1  0  0  0
139140  1  0  0  0  0
140141  1  0  0  0  0
141142  1  0  0  0  0
142143  1  0  0  0  0
143144  1  0  0  0  0
139145  1  0  0  0  0
145146  2  0  0  0  0
145147  1  0  0  0  0
148147  1  1  0  0  0
148149  1  0  0  0  0
149150  1  0  0  0  0
150151  1  0  0  0  0
151152  1  0  0  0  0
152153  1  0  0  0  0
148154  1  0  0  0  0
154155  2  0  0  0  0
154156  1  0  0  0  0
M  END
> <Molecule Name>
CHEMBL3823964

> <IUPAC>
(2S)-6-amino-N-[(1S)-5-amino-1-{[(1S)-5-amino-1-{[(1S)-5-amino-1-carbamoylpentyl]carbamoyl}pentyl]carbamoyl}pentyl]-2-({1-[(2S)-6-amino-2-[2-({1-[2-({1-[(2S)-2-({1-[2-({1-[(2S)-6-amino-2-({1-[2-({1-[(
2S)-2-(2-acetamidoacetamido)-3-phenylpropanamido]cyclopentyl}formamido)acetamido]cyclopentyl}formamido)hexanamido]cyclopentyl}formamido)acetamido]cyclopentyl}formamido)-3-phenylpropanamido]cyclopentyl
}formamido)acetamido]cyclopentyl}formamido)acetamido]hexanamido]cyclopentyl}formamido)hexanamide

> <ChEMBL_Data_Neisseria_g: Qualifier_for_MIC_Ng>
=

> <ChEMBL_Data_Neisseria_g: ASSAY_CHEMBLID>
CHEMBL3825481

> <ChEMBL_Data_Neisseria_g: DESCRIPTION_of_Assay_Ng>
Antibacterial activity against Neisseria gonorrhoeae F-18 ATCC 49226 by two fold serial dilution method

> <ChEMBL_Data_Neisseria_g: PUBMED_ID>
27387357

> <ChEMBL_Data_Neisseria_g: YEAR>
2016

> <ChEMBL_Data_Neisseria_g: JOURNAL>
Bioorg. Med. Chem.

> <ChEMBL_Data_Neisseria_g: VOLUME>
24

> <ChEMBL_Data_Neisseria_g: FIRST_PAGE>
4056

> <ChEMBL_Data_Neisseria_g: MIC_vs_Neisseria_microg_per_mL>
50

> <ALogP>
-2.824

> <Active>
0

> <Molecular_Weight>
2185.7

> <ChEMBL_Data_Neisseria_g: STRAIN_of_Ng>
F-18 ATCC 49226

$$$$

Generated by Molecular Materials Informatics

145153  0  0  0  0  0  0  0  0999 V2000
  -29.8065    2.5442    0.0000 C   0  0  0  0  0  0  0  0  0  0  0  0
  -28.3474    2.1962    0.0000 C   0  0  0  0  0  0  0  0  0  0  0  0
  -27.9192    0.7588    0.0000 O   0  0  0  0  0  0  0  0  0  0  0  0
  -27.3165    3.2858    0.0000 N   0  0  0  0  0  0  0  0  0  0  0  0
  -27.7447    4.7235    0.0000 C   0  0  0  0  0  0  0  0  0  0  0  0
  -26.7138    5.8131    0.0000 C   0  0  0  0  0  0  0  0  0  0  0  0
  -25.7380    4.6740    0.0000 O   0  0  0  0  0  0  0  0  0  0  0  0
  -27.1420    7.2505    0.0000 N   0  0  0  0  0  0  0  0  0  0  0  0
  -26.1111    8.3402    0.0000 C   0  0  0  0  0  0  0  0  0  0  0  0
  -24.6520    7.9923    0.0000 C   0  0  0  0  0  0  0  0  0  0  0  0
  -24.2238    6.5547    0.0000 C   0  0  0  0  0  0  0  0  0  0  0  0
  -22.7647    6.2067    0.0000 C   0  0  0  0  0  0  0  0  0  0  0  0
  -22.3366    4.7691    0.0000 C   0  0  0  0  0  0  0  0  0  0  0  0
  -23.3675    3.6797    0.0000 C   0  0  0  0  0  0  0  0  0  0  0  0
  -24.8265    4.0275    0.0000 C   0  0  0  0  0  0  0  0  0  0  0  0
  -25.2547    5.4651    0.0000 C   0  0  0  0  0  0  0  0  0  0  0  0
  -26.5392    9.7778    0.0000 C   0  0  0  0  0  0  0  0  0  0  0  0
  -27.9983   10.1258    0.0000 O   0  0  0  0  0  0  0  0  0  0  0  0
  -25.5085   10.8674    0.0000 N   0  0  0  0  0  0  0  0  0  0  0  0
  -25.9367   12.3050    0.0000 C   0  0  0  0  0  0  0  0  0  0  0  0
  -25.8473   13.8023    0.0000 C   0  0  0  0  0  0  0  0  0  0  0  0
  -27.0994   14.6283    0.0000 C   0  0  0  0  0  0  0  0  0  0  0  0
  -28.4409   13.9570    0.0000 C   0  0  0  0  0  0  0  0  0  0  0  0
  -28.5301   12.4597    0.0000 C   0  0  0  0  0  0  0  0  0  0  0  0
  -27.2780   11.6336    0.0000 C   0  0  0  0  0  0  0  0  0  0  0  0
  -24.4465   12.4770    0.0000 C   0  0  0  0  0  0  0  0  0  0  0  0
  -23.8505   13.8535    0.0000 O   0  0  0  0  0  0  0  0  0  0  0  0
  -23.5526   11.2727    0.0000 N   0  0  0  0  0  0  0  0  0  0  0  0
  -22.0624   11.4447    0.0000 C   0  0  0  0  0  0  0  0  0  0  0  0
  -21.1684   10.2403    0.0000 C   0  0  0  0  0  0  0  0  0  0  0  0
  -21.7644    8.8638    0.0000 O   0  0  0  0  0  0  0  0  0  0  0  0
  -19.6782   10.4123    0.0000 N   0  0  0  0  0  0  0  0  0  0  0  0
  -19.0822   11.7888    0.0000 C   0  0  0  0  0  0  0  0  0  0  0  0
  -18.0513   12.8785    0.0000 C   0  0  0  0  0  0  0  0  0  0  0  0
  -18.4795   14.3159    0.0000 C   0  0  0  0  0  0  0  0  0  0  0  0
  -19.9386   14.6639    0.0000 C   0  0  0  0  0  0  0  0  0  0  0  0
  -20.9695   13.5743    0.0000 C   0  0  0  0  0  0  0  0  0  0  0  0
  -20.5413   12.1368    0.0000 C   0  0  0  0  0  0  0  0  0  0  0  0
  -17.8303   10.9628    0.0000 C   0  0  0  0  0  0  0  0  0  0  0  0
  -17.9195    9.4654    0.0000 O   0  0  0  0  0  0  0  0  0  0  0  0
  -16.4888   11.6341    0.0000 N   0  0  0  0  0  0  0  0  0  0  0  0
  -15.2368   10.8081    0.0000 C   0  0  0  0  0  0  0  0  0  0  0  0
  -15.3261    9.3109    0.0000 C   0  0  0  0  0  0  0  0  0  0  0  0
  -16.6674    8.6394    0.0000 N   0  0  0  0  0  0  0  0  0  0  0  0
  -13.8954   11.4794    0.0000 C   0  0  0  0  0  0  0  0  0  0  0  0
  -13.8061   12.9768    0.0000 O   0  0  0  0  0  0  0  0  0  0  0  0
  -12.6434   10.6534    0.0000 N   0  0  0  0  0  0  0  0  0  0  0  0
  -11.3020   11.3248    0.0000 C   0  0  0  0  0  0  0  0  0  0  0  0
   -9.8118   11.4968    0.0000 C   0  0  0  0  0  0  0  0  0  0  0  0
   -9.2158   12.8734    0.0000 C   0  0  0  0  0  0  0  0  0  0  0  0
  -10.1100   14.0777    0.0000 C   0  0  0  0  0  0  0  0  0  0  0  0
  -11.6000   13.9057    0.0000 C   0  0  0  0  0  0  0  0  0  0  0  0
  -12.1960   12.5292    0.0000 C   0  0  0  0  0  0  0  0  0  0  0  0
  -10.8738    9.8872    0.0000 C   0  0  0  0  0  0  0  0  0  0  0  0
   -9.4147    9.5392    0.0000 O   0  0  0  0  0  0  0  0  0  0  0  0
  -11.9047    8.7976    0.0000 N   0  0  0  0  0  0  0  0  0  0  0  0
  -11.4765    7.3600    0.0000 C   0  0  0  0  0  0  0  0  0  0  0  0
  -12.5072    6.2704    0.0000 C   0  0  0  0  0  0  0  0  0  0  0  0
  -13.9663    6.6184    0.0000 O   0  0  0  0  0  0  0  0  0  0  0  0
  -12.0791    4.8329    0.0000 N   0  0  0  0  0  0  0  0  0  0  0  0
  -13.1099    3.7433    0.0000 C   0  0  0  0  0  0  0  0  0  0  0  0
  -13.7059    2.3668    0.0000 C   0  0  0  0  0  0  0  0  0  0  0  0
  -15.1961    2.1948    0.0000 C   0  0  0  0  0  0  0  0  0  0  0  0
  -16.0901    3.3991    0.0000 C   0  0  0  0  0  0  0  0  0  0  0  0
  -15.4941    4.7756    0.0000 C   0  0  0  0  0  0  0  0  0  0  0  0
  -14.0041    4.9476    0.0000 C   0  0  0  0  0  0  0  0  0  0  0  0
  -11.8580    2.9173    0.0000 C   0  0  0  0  0  0  0  0  0  0  0  0
  -12.8103    1.7584    0.0000 O   0  0  0  0  0  0  0  0  0  0  0  0
  -10.5165    3.5886    0.0000 N   0  0  0  0  0  0  0  0  0  0  0  0
   -9.2645    2.7626    0.0000 C   0  0  0  0  0  0  0  0  0  0  0  0
   -9.3538    1.2651    0.0000 C   0  0  0  0  0  0  0  0  0  0  0  0
  -10.6951    0.5939    0.0000 C   0  0  0  0  0  0  0  0  0  0  0  0
  -10.7845   -0.9034    0.0000 C   0  0  0  0  0  0  0  0  0  0  0  0
  -12.1258   -1.5748    0.0000 C   0  0  0  0  0  0  0  0  0  0  0  0
  -13.3779   -0.7487    0.0000 C   0  0  0  0  0  0  0  0  0  0  0  0
  -13.2887    0.7486    0.0000 C   0  0  0  0  0  0  0  0  0  0  0  0
  -11.9472    1.4199    0.0000 C   0  0  0  0  0  0  0  0  0  0  0  0
   -7.9231    3.4338    0.0000 C   0  0  0  0  0  0  0  0  0  0  0  0
   -7.8338    4.9311    0.0000 O   0  0  0  0  0  0  0  0  0  0  0  0
   -6.6711    2.6079    0.0000 N   0  0  0  0  0  0  0  0  0  0  0  0
   -5.3297    3.2791    0.0000 C   0  0  0  0  0  0  0  0  0  0  0  0
   -3.8395    3.4513    0.0000 C   0  0  0  0  0  0  0  0  0  0  0  0
   -3.2435    4.8276    0.0000 C   0  0  0  0  0  0  0  0  0  0  0  0
   -4.1377    6.0322    0.0000 C   0  0  0  0  0  0  0  0  0  0  0  0
   -5.6277    5.8600    0.0000 C   0  0  0  0  0  0  0  0  0  0  0  0
   -6.2237    4.4837    0.0000 C   0  0  0  0  0  0  0  0  0  0  0  0
   -4.9015    1.8417    0.0000 C   0  0  0  0  0  0  0  0  0  0  0  0
   -3.4424    1.4937    0.0000 O   0  0  0  0  0  0  0  0  0  0  0  0
   -5.9324    0.7521    0.0000 N   0  0  0  0  0  0  0  0  0  0  0  0
   -5.5042   -0.6856    0.0000 C   0  0  0  0  0  0  0  0  0  0  0  0
   -6.5349   -1.7752    0.0000 C   0  0  0  0  0  0  0  0  0  0  0  0
   -7.9940   -1.4272    0.0000 O   0  0  0  0  0  0  0  0  0  0  0  0
   -6.1068   -3.2128    0.0000 N   0  0  0  0  0  0  0  0  0  0  0  0
   -7.1377   -4.3024    0.0000 C   0  0  0  0  0  0  0  0  0  0  0  0
   -7.7336   -5.6788    0.0000 C   0  0  0  0  0  0  0  0  0  0  0  0
   -9.2238   -5.8510    0.0000 C   0  0  0  0  0  0  0  0  0  0  0  0
  -10.1178   -4.6464    0.0000 C   0  0  0  0  0  0  0  0  0  0  0  0
   -9.5218   -3.2701    0.0000 C   0  0  0  0  0  0  0  0  0  0  0  0
   -8.0318   -3.0979    0.0000 C   0  0  0  0  0  0  0  0  0  0  0  0
   -5.8857   -5.1284    0.0000 C   0  0  0  0  0  0  0  0  0  0  0  0
   -5.9749   -6.6257    0.0000 O   0  0  0  0  0  0  0  0  0  0  0  0
   -4.5442   -4.4570    0.0000 N   0  0  0  0  0  0  0  0  0  0  0  0
   -3.2922   -5.2830    0.0000 C   0  0  0  0  0  0  0  0  0  0  0  0
   -1.9508   -4.6117    0.0000 C   0  0  0  0  0  0  0  0  0  0  0  0
   -1.8615   -3.1144    0.0000 O   0  0  0  0  0  0  0  0  0  0  0  0
   -0.6988   -5.4377    0.0000 N   0  0  0  0  0  0  0  0  0  0  0  0
    0.6426   -4.7664    0.0000 C   0  0  0  0  0  0  0  0  0  0  0  0
    0.7319   -3.2690    0.0000 C   0  0  0  0  0  0  0  0  0  0  0  0
   -0.5201   -2.4430    0.0000 N   0  0  0  0  0  0  0  0  0  0  0  0
    1.8946   -5.5924    0.0000 C   0  0  0  0  0  0  0  0  0  0  0  0
    1.8053   -7.0897    0.0000 O   0  0  0  0  0  0  0  0  0  0  0  0
    3.2360   -4.9211    0.0000 N   0  0  0  0  0  0  0  0  0  0  0  0
    4.4880   -5.7471    0.0000 C   0  0  0  0  0  0  0  0  0  0  0  0
    5.9471   -6.0950    0.0000 C   0  0  0  0  0  0  0  0  0  0  0  0
    6.3755   -7.5326    0.0000 C   0  0  0  0  0  0  0  0  0  0  0  0
    5.3446   -8.6222    0.0000 C   0  0  0  0  0  0  0  0  0  0  0  0
    3.8855   -8.2742    0.0000 C   0  0  0  0  0  0  0  0  0  0  0  0
    3.4573   -6.8368    0.0000 C   0  0  0  0  0  0  0  0  0  0  0  0
    5.0842   -4.3706    0.0000 C   0  0  0  0  0  0  0  0  0  0  0  0
    6.5742   -4.1986    0.0000 O   0  0  0  0  0  0  0  0  0  0  0  0
    4.1900   -3.1661    0.0000 N   0  0  0  0  0  0  0  0  0  0  0  0
    4.7862   -1.7897    0.0000 C   0  0  0  0  0  0  0  0  0  0  0  0
    3.8920   -0.5852    0.0000 C   0  0  0  0  0  0  0  0  0  0  0  0
    4.4880    0.7911    0.0000 N   0  0  0  0  0  0  0  0  0  0  0  0
    6.2762   -1.6175    0.0000 C   0  0  0  0  0  0  0  0  0  0  0  0
    6.8722   -0.2412    0.0000 O   0  0  0  0  0  0  0  0  0  0  0  0
    7.1702   -2.8221    0.0000 N   0  0  0  0  0  0  0  0  0  0  0  0
    8.6603   -2.6499    0.0000 C   0  0  0  0  0  0  0  0  0  0  0  0
    9.2563   -1.2736    0.0000 C   0  0  0  0  0  0  0  0  0  0  0  0
   10.7465   -1.1014    0.0000 N   0  0  0  0  0  0  0  0  0  0  0  0
    9.5543   -3.8544    0.0000 C   0  0  0  0  0  0  0  0  0  0  0  0
    8.9583   -5.2310    0.0000 O   0  0  0  0  0  0  0  0  0  0  0  0
   11.0445   -3.6824    0.0000 N   0  0  0  0  0  0  0  0  0  0  0  0
   11.9385   -4.8868    0.0000 C   0  0  0  0  0  0  0  0  0  0  0  0
   11.3425   -6.2633    0.0000 C   0  0  0  0  0  0  0  0  0  0  0  0
   12.2365   -7.4677    0.0000 N   0  0  0  0  0  0  0  0  0  0  0  0
   13.4287   -4.7148    0.0000 C   0  0  0  0  0  0  0  0  0  0  0  0
   14.0246   -3.3383    0.0000 O   0  0  0  0  0  0  0  0  0  0  0  0
   14.3226   -5.9191    0.0000 N   0  0  0  0  0  0  0  0  0  0  0  0
   15.8128   -5.7471    0.0000 C   0  0  0  0  0  0  0  0  0  0  0  0
   16.7068   -6.9515    0.0000 C   0  0  0  0  0  0  0  0  0  0  0  0
   18.1968   -6.7795    0.0000 N   0  0  0  0  0  0  0  0  0  0  0  0
   16.4088   -4.3706    0.0000 C   0  0  0  0  0  0  0  0  0  0  0  0
   17.8988   -4.1986    0.0000 O   0  0  0  0  0  0  0  0  0  0  0  0
   15.5148   -3.1661    0.0000 N   0  0  0  0  0  0  0  0  0  0  0  0
  1  2  1  0  0  0  0
  2  3  2  0  0  0  0
  2  4  1  0  0  0  0
  4  5  1  0  0  0  0
  5  6  1  0  0  0  0
  6  7  2  0  0  0  0
  6  8  1  0  0  0  0
  9  8  1  6  0  0  0
  9 10  1  0  0  0  0
 10 11  1  0  0  0  0
 11 12  2  0  0  0  0
 12 13  1  0  0  0  0
 13 14  2  0  0  0  0
 14 15  1  0  0  0  0
 15 16  2  0  0  0  0
 11 16  1  0  0  0  0
  9 17  1  0  0  0  0
 17 18  2  0  0  0  0
 17 19  1  0  0  0  0
 19 20  1  0  0  0  0
 20 21  1  0  0  0  0
 21 22  1  0  0  0  0
 22 23  1  0  0  0  0
 23 24  1  0  0  0  0
 24 25  1  0  0  0  0
 20 25  1  0  0  0  0
 20 26  1  0  0  0  0
 26 27  2  0  0  0  0
 26 28  1  0  0  0  0
 28 29  1  0  0  0  0
 29 30  1  0  0  0  0
 30 31  2  0  0  0  0
 30 32  1  0  0  0  0
 32 33  1  0  0  0  0
 33 34  1  0  0  0  0
 34 35  1  0  0  0  0
 35 36  1  0  0  0  0
 36 37  1  0  0  0  0
 37 38  1  0  0  0  0
 33 38  1  0  0  0  0
 33 39  1  0  0  0  0
 39 40  2  0  0  0  0
 39 41  1  0  0  0  0
 41 42  1  0  0  0  0
 42 43  1  0  0  0  0
 43 44  1  0  0  0  0
 42 45  1  0  0  0  0
 45 46  2  0  0  0  0
 45 47  1  0  0  0  0
 47 48  1  0  0  0  0
 48 49  1  0  0  0  0
 49 50  1  0  0  0  0
 50 51  1  0  0  0  0
 51 52  1  0  0  0  0
 52 53  1  0  0  0  0
 48 53  1  0  0  0  0
 48 54  1  0  0  0  0
 54 55  2  0  0  0  0
 54 56  1  0  0  0  0
 56 57  1  0  0  0  0
 57 58  1  0  0  0  0
 58 59  2  0  0  0  0
 58 60  1  0  0  0  0
 60 61  1  0  0  0  0
 61 62  1  0  0  0  0
 62 63  1  0  0  0  0
 63 64  1  0  0  0  0
 64 65  1  0  0  0  0
 65 66  1  0  0  0  0
 61 66  1  0  0  0  0
 61 67  1  0  0  0  0
 67 68  2  0  0  0  0
 67 69  1  0  0  0  0
 70 69  1  6  0  0  0
 70 71  1  0  0  0  0
 71 72  1  0  0  0  0
 72 73  2  0  0  0  0
 73 74  1  0  0  0  0
 74 75  2  0  0  0  0
 75 76  1  0  0  0  0
 76 77  2  0  0  0  0
 72 77  1  0  0  0  0
 70 78  1  0  0  0  0
 78 79  2  0  0  0  0
 78 80  1  0  0  0  0
 80 81  1  0  0  0  0
 81 82  1  0  0  0  0
 82 83  1  0  0  0  0
 83 84  1  0  0  0  0
 84 85  1  0  0  0  0
 85 86  1  0  0  0  0
 81 86  1  0  0  0  0
 81 87  1  0  0  0  0
 87 88  2  0  0  0  0
 87 89  1  0  0  0  0
 89 90  1  0  0  0  0
 90 91  1  0  0  0  0
 91 92  2  0  0  0  0
 91 93  1  0  0  0  0
 93 94  1  0  0  0  0
 94 95  1  0  0  0  0
 95 96  1  0  0  0  0
 96 97  1  0  0  0  0
 97 98  1  0  0  0  0
 98 99  1  0  0  0  0
 94 99  1  0  0  0  0
 94100  1  0  0  0  0
100101  2  0  0  0  0
100102  1  0  0  0  0
102103  1  0  0  0  0
103104  1  0  0  0  0
104105  2  0  0  0  0
104106  1  0  0  0  0
106107  1  0  0  0  0
107108  1  0  0  0  0
108109  1  0  0  0  0
107110  1  0  0  0  0
110111  2  0  0  0  0
110112  1  0  0  0  0
112113  1  0  0  0  0
113114  1  0  0  0  0
114115  1  0  0  0  0
115116  1  0  0  0  0
116117  1  0  0  0  0
117118  1  0  0  0  0
113118  1  0  0  0  0
113119  1  0  0  0  0
119120  2  0  0  0  0
119121  1  0  0  0  0
121122  1  0  0  0  0
122123  1  0  0  0  0
123124  1  0  0  0  0
122125  1  0  0  0  0
125126  2  0  0  0  0
125127  1  0  0  0  0
127128  1  0  0  0  0
128129  1  0  0  0  0
129130  1  0  0  0  0
128131  1  0  0  0  0
131132  2  0  0  0  0
131133  1  0  0  0  0
133134  1  0  0  0  0
134135  1  0  0  0  0
135136  1  0  0  0  0
134137  1  0  0  0  0
137138  2  0  0  0  0
137139  1  0  0  0  0
139140  1  0  0  0  0
140141  1  0  0  0  0
141142  1  0  0  0  0
140143  1  0  0  0  0
143144  2  0  0  0  0
143145  1  0  0  0  0
M  END
> <Molecule Name>
CHEMBL3823648

> <IUPAC>
3-amino-N-[2-amino-1-({2-amino-1-[(2-amino-1-carbamoylethyl)carbamoyl]ethyl}carbamoyl)ethyl]-2-[(1-{3-amino-2-[2-({1-[2-({1-[(2S)-2-({1-[2-({1-[3-amino-2-({1-[2-({1-[(2S)-2-(2-acetamidoacetamido)-3-ph
enylpropanamido]cyclohexyl}formamido)acetamido]cyclohexyl}formamido)propanamido]cyclohexyl}formamido)acetamido]cyclohexyl}formamido)-3-phenylpropanamido]cyclohexyl}formamido)acetamido]cyclohexyl}forma
mido)acetamido]propanamido}cyclohexyl)formamido]propanamide

> <ChEMBL_Data_Neisseria_g: Qualifier_for_MIC_Ng>
=

> <ChEMBL_Data_Neisseria_g: ASSAY_CHEMBLID>
CHEMBL3825481

> <ChEMBL_Data_Neisseria_g: DESCRIPTION_of_Assay_Ng>
Antibacterial activity against Neisseria gonorrhoeae F-18 ATCC 49226 by two fold serial dilution method

> <ChEMBL_Data_Neisseria_g: PUBMED_ID>
27387357

> <ChEMBL_Data_Neisseria_g: YEAR>
2016

> <ChEMBL_Data_Neisseria_g: JOURNAL>
Bioorg. Med. Chem.

> <ChEMBL_Data_Neisseria_g: VOLUME>
24

> <ChEMBL_Data_Neisseria_g: FIRST_PAGE>
4056

> <ChEMBL_Data_Neisseria_g: MIC_vs_Neisseria_microg_per_mL>
12.5

> <ALogP>
-6.223

> <Active>
0

> <Molecular_Weight>
2031.41

> <ChEMBL_Data_Neisseria_g: STRAIN_of_Ng>
F-18 ATCC 49226

$$$$

Generated by Molecular Materials Informatics

168176  0  0  0  0  0  0  0  0999 V2000
  -20.2553   14.1881    0.0000 C   0  0  0  0  0  0  0  0  0  0  0  0
  -21.5515   13.4332    0.0000 C   0  0  0  0  0  0  0  0  0  0  0  0
  -22.8535   14.1782    0.0000 O   0  0  0  0  0  0  0  0  0  0  0  0
  -21.5458   11.9331    0.0000 N   0  0  0  0  0  0  0  0  0  0  0  0
  -20.2440   11.1880    0.0000 C   0  0  0  0  0  0  0  0  0  0  0  0
  -20.2384    9.6880    0.0000 C   0  0  0  0  0  0  0  0  0  0  0  0
  -21.3675    8.3191    0.0000 O   0  0  0  0  0  0  0  0  0  0  0  0
  -18.9366    8.9429    0.0000 N   0  0  0  0  0  0  0  0  0  0  0  0
  -18.9307    7.4431    0.0000 C   0  0  0  0  0  0  0  0  0  0  0  0
  -20.2271    6.6882    0.0000 C   0  0  0  0  0  0  0  0  0  0  0  0
  -21.5289    7.4333    0.0000 C   0  0  0  0  0  0  0  0  0  0  0  0
  -22.8251    6.6784    0.0000 C   0  0  0  0  0  0  0  0  0  0  0  0
  -24.1270    7.4235    0.0000 C   0  0  0  0  0  0  0  0  0  0  0  0
  -24.1326    8.9235    0.0000 C   0  0  0  0  0  0  0  0  0  0  0  0
  -22.8364    9.6784    0.0000 C   0  0  0  0  0  0  0  0  0  0  0  0
  -21.5346    8.9333    0.0000 C   0  0  0  0  0  0  0  0  0  0  0  0
  -17.6289    6.6980    0.0000 C   0  0  0  0  0  0  0  0  0  0  0  0
  -16.3327    7.4529    0.0000 O   0  0  0  0  0  0  0  0  0  0  0  0
  -17.6233    5.1980    0.0000 N   0  0  0  0  0  0  0  0  0  0  0  0
  -18.9195    4.4431    0.0000 C   0  0  0  0  0  0  0  0  0  0  0  0
  -20.0304    3.4351    0.0000 C   0  0  0  0  0  0  0  0  0  0  0  0
  -21.3322    4.1802    0.0000 C   0  0  0  0  0  0  0  0  0  0  0  0
  -21.0260    5.6486    0.0000 C   0  0  0  0  0  0  0  0  0  0  0  0
  -19.5347    5.8111    0.0000 C   0  0  0  0  0  0  0  0  0  0  0  0
  -18.0333    3.2329    0.0000 C   0  0  0  0  0  0  0  0  0  0  0  0
  -18.6382    1.8602    0.0000 O   0  0  0  0  0  0  0  0  0  0  0  0
  -16.5420    3.3953    0.0000 N   0  0  0  0  0  0  0  0  0  0  0  0
  -15.9371    4.7678    0.0000 C   0  0  0  0  0  0  0  0  0  0  0  0
  -14.4460    4.9304    0.0000 C   0  0  0  0  0  0  0  0  0  0  0  0
  -13.8411    6.3029    0.0000 O   0  0  0  0  0  0  0  0  0  0  0  0
  -13.5596    3.7202    0.0000 N   0  0  0  0  0  0  0  0  0  0  0  0
  -14.1645    2.3475    0.0000 C   0  0  0  0  0  0  0  0  0  0  0  0
  -14.4709    0.8791    0.0000 C   0  0  0  0  0  0  0  0  0  0  0  0
  -15.9622    0.7167    0.0000 C   0  0  0  0  0  0  0  0  0  0  0  0
  -16.5775    2.0847    0.0000 C   0  0  0  0  0  0  0  0  0  0  0  0
  -15.4665    3.0926    0.0000 C   0  0  0  0  0  0  0  0  0  0  0  0
  -12.7364    1.8895    0.0000 C   0  0  0  0  0  0  0  0  0  0  0  0
  -12.4189    0.4233    0.0000 O   0  0  0  0  0  0  0  0  0  0  0  0
  -11.6253    2.8973    0.0000 N   0  0  0  0  0  0  0  0  0  0  0  0
  -10.1971    2.4391    0.0000 C   0  0  0  0  0  0  0  0  0  0  0  0
   -9.8796    0.9731    0.0000 C   0  0  0  0  0  0  0  0  0  0  0  0
  -11.1018    0.3745    0.0000 C   0  0  0  0  0  0  0  0  0  0  0  0
  -10.6731   -1.5009    0.0000 C   0  0  0  0  0  0  0  0  0  0  0  0
  -11.7840   -2.5087    0.0000 N   0  0  0  0  0  0  0  0  0  0  0  0
  -11.4667   -3.9748    0.0000 C   0  0  0  0  0  0  0  0  0  0  0  0
  -10.0383   -4.4329    0.0000 N   0  0  0  0  0  0  0  0  0  0  0  0
  -12.5776   -4.9828    0.0000 N   0  0  0  0  0  0  0  0  0  0  0  0
   -9.0861    3.4471    0.0000 C   0  0  0  0  0  0  0  0  0  0  0  0
   -9.4034    4.9131    0.0000 O   0  0  0  0  0  0  0  0  0  0  0  0
   -7.6578    2.9889    0.0000 N   0  0  0  0  0  0  0  0  0  0  0  0
   -6.5469    3.9967    0.0000 C   0  0  0  0  0  0  0  0  0  0  0  0
   -5.2507    4.7517    0.0000 C   0  0  0  0  0  0  0  0  0  0  0  0
   -5.5679    6.2177    0.0000 C   0  0  0  0  0  0  0  0  0  0  0  0
   -7.0603    6.3689    0.0000 C   0  0  0  0  0  0  0  0  0  0  0  0
   -7.6654    4.9962    0.0000 C   0  0  0  0  0  0  0  0  0  0  0  0
   -5.6605    2.7866    0.0000 C   0  0  0  0  0  0  0  0  0  0  0  0
   -6.2656    1.4140    0.0000 O   0  0  0  0  0  0  0  0  0  0  0  0
   -4.1694    2.9491    0.0000 N   0  0  0  0  0  0  0  0  0  0  0  0
   -3.5645    4.3216    0.0000 C   0  0  0  0  0  0  0  0  0  0  0  0
   -2.0732    4.4840    0.0000 C   0  0  0  0  0  0  0  0  0  0  0  0
   -1.0756    2.8646    0.0000 O   0  0  0  0  0  0  0  0  0  0  0  0
   -1.4683    5.8567    0.0000 N   0  0  0  0  0  0  0  0  0  0  0  0
   -2.3547    7.0669    0.0000 C   0  0  0  0  0  0  0  0  0  0  0  0
   -2.9699    8.4349    0.0000 C   0  0  0  0  0  0  0  0  0  0  0  0
   -4.4610    8.2724    0.0000 C   0  0  0  0  0  0  0  0  0  0  0  0
   -4.7674    6.8040    0.0000 C   0  0  0  0  0  0  0  0  0  0  0  0
   -3.4656    6.0589    0.0000 C   0  0  0  0  0  0  0  0  0  0  0  0
   -1.0585    7.8218    0.0000 C   0  0  0  0  0  0  0  0  0  0  0  0
    0.2435    7.0768    0.0000 O   0  0  0  0  0  0  0  0  0  0  0  0
   -1.0641    9.3219    0.0000 N   0  0  0  0  0  0  0  0  0  0  0  0
    0.2321   10.0768    0.0000 C   0  0  0  0  0  0  0  0  0  0  0  0
    0.2264   11.5768    0.0000 C   0  0  0  0  0  0  0  0  0  0  0  0
   -1.0754   12.3219    0.0000 C   0  0  0  0  0  0  0  0  0  0  0  0
   -2.3716   11.5670    0.0000 C   0  0  0  0  0  0  0  0  0  0  0  0
   -3.6734   12.3121    0.0000 C   0  0  0  0  0  0  0  0  0  0  0  0
   -3.6790   13.8121    0.0000 C   0  0  0  0  0  0  0  0  0  0  0  0
   -2.3828   14.5668    0.0000 C   0  0  0  0  0  0  0  0  0  0  0  0
   -1.0810   13.8217    0.0000 C   0  0  0  0  0  0  0  0  0  0  0  0
    1.5341    9.3317    0.0000 C   0  0  0  0  0  0  0  0  0  0  0  0
    2.8303   10.0866    0.0000 O   0  0  0  0  0  0  0  0  0  0  0  0
    1.5397    7.8317    0.0000 N   0  0  0  0  0  0  0  0  0  0  0  0
    2.8415    7.0866    0.0000 C   0  0  0  0  0  0  0  0  0  0  0  0
    3.9601    6.0871    0.0000 C   0  0  0  0  0  0  0  0  0  0  0  0
    5.2563    6.8418    0.0000 C   0  0  0  0  0  0  0  0  0  0  0  0
    4.9388    8.3080    0.0000 C   0  0  0  0  0  0  0  0  0  0  0  0
    3.4465    8.4591    0.0000 C   0  0  0  0  0  0  0  0  0  0  0  0
    1.9645    5.8697    0.0000 C   0  0  0  0  0  0  0  0  0  0  0  0
    0.4721    6.0207    0.0000 O   0  0  0  0  0  0  0  0  0  0  0  0
    2.5797    4.5017    0.0000 N   0  0  0  0  0  0  0  0  0  0  0  0
    4.0721    4.3506    0.0000 C   0  0  0  0  0  0  0  0  0  0  0  0
    4.6874    2.9826    0.0000 C   0  0  0  0  0  0  0  0  0  0  0  0
    6.1797    2.8313    0.0000 O   0  0  0  0  0  0  0  0  0  0  0  0
    3.8103    1.7656    0.0000 N   0  0  0  0  0  0  0  0  0  0  0  0
    4.4256    0.3976    0.0000 C   0  0  0  0  0  0  0  0  0  0  0  0
    4.7430   -1.0684    0.0000 C   0  0  0  0  0  0  0  0  0  0  0  0
    6.2354   -1.2197    0.0000 C   0  0  0  0  0  0  0  0  0  0  0  0
    6.8403    0.1531    0.0000 C   0  0  0  0  0  0  0  0  0  0  0  0
    5.5170    1.0969    0.0000 C   0  0  0  0  0  0  0  0  0  0  0  0
    3.0008   -0.0713    0.0000 C   0  0  0  0  0  0  0  0  0  0  0  0
    1.8823    0.9282    0.0000 O   0  0  0  0  0  0  0  0  0  0  0  0
    2.5830   -1.1304    0.0000 N   0  0  0  0  0  0  0  0  0  0  0  0
    1.2695   -2.0086    0.0000 C   0  0  0  0  0  0  0  0  0  0  0  0
    0.9632   -3.4769    0.0000 C   0  0  0  0  0  0  0  0  0  0  0  0
    2.1932   -4.8859    0.0000 O   0  0  0  0  0  0  0  0  0  0  0  0
   -0.4616   -3.9458    0.0000 N   0  0  0  0  0  0  0  0  0  0  0  0
   -0.7679   -5.4142    0.0000 C   0  0  0  0  0  0  0  0  0  0  0  0
    0.3506   -6.4139    0.0000 C   0  0  0  0  0  0  0  0  0  0  0  0
    0.0443   -7.8822    0.0000 C   0  0  0  0  0  0  0  0  0  0  0  0
    1.1628   -8.8817    0.0000 C   0  0  0  0  0  0  0  0  0  0  0  0
    0.8564  -10.3501    0.0000 N   0  0  0  0  0  0  0  0  0  0  0  0
    1.9750  -11.3495    0.0000 C   0  0  0  0  0  0  0  0  0  0  0  0
    3.3997  -10.8806    0.0000 N   0  0  0  0  0  0  0  0  0  0  0  0
    1.6686  -12.8179    0.0000 N   0  0  0  0  0  0  0  0  0  0  0  0
   -2.1927   -5.8831    0.0000 C   0  0  0  0  0  0  0  0  0  0  0  0
   -3.3112   -4.8837    0.0000 O   0  0  0  0  0  0  0  0  0  0  0  0
   -2.4990   -7.3517    0.0000 N   0  0  0  0  0  0  0  0  0  0  0  0
   -3.9239   -7.8206    0.0000 C   0  0  0  0  0  0  0  0  0  0  0  0
   -5.4150   -7.9830    0.0000 C   0  0  0  0  0  0  0  0  0  0  0  0
   -5.7214   -9.4513    0.0000 C   0  0  0  0  0  0  0  0  0  0  0  0
   -4.4196  -10.1964    0.0000 C   0  0  0  0  0  0  0  0  0  0  0  0
   -3.3087   -9.1886    0.0000 C   0  0  0  0  0  0  0  0  0  0  0  0
   -4.2414   -6.3544    0.0000 C   0  0  0  0  0  0  0  0  0  0  0  0
   -3.9350   -4.8860    0.0000 O   0  0  0  0  0  0  0  0  0  0  0  0
   -5.6696   -5.8964    0.0000 N   0  0  0  0  0  0  0  0  0  0  0  0
   -5.9870   -4.4304    0.0000 C   0  0  0  0  0  0  0  0  0  0  0  0
   -7.4154   -3.9722    0.0000 C   0  0  0  0  0  0  0  0  0  0  0  0
   -7.7329   -2.5062    0.0000 C   0  0  0  0  0  0  0  0  0  0  0  0
   -9.1611   -2.0480    0.0000 C   0  0  0  0  0  0  0  0  0  0  0  0
   -9.4785   -0.5820    0.0000 N   0  0  0  0  0  0  0  0  0  0  0  0
  -10.9069   -0.1238    0.0000 C   0  0  0  0  0  0  0  0  0  0  0  0
  -11.2243    1.3422    0.0000 N   0  0  0  0  0  0  0  0  0  0  0  0
  -12.0178   -1.1317    0.0000 N   0  0  0  0  0  0  0  0  0  0  0  0
   -4.8761   -3.4224    0.0000 C   0  0  0  0  0  0  0  0  0  0  0  0
   -5.1936   -1.9564    0.0000 O   0  0  0  0  0  0  0  0  0  0  0  0
   -3.4478   -3.8806    0.0000 N   0  0  0  0  0  0  0  0  0  0  0  0
   -2.3368   -2.8726    0.0000 C   0  0  0  0  0  0  0  0  0  0  0  0
   -2.6543   -1.4066    0.0000 C   0  0  0  0  0  0  0  0  0  0  0  0
   -1.5434   -0.3987    0.0000 C   0  0  0  0  0  0  0  0  0  0  0  0
   -1.8608    1.0673    0.0000 C   0  0  0  0  0  0  0  0  0  0  0  0
   -0.7497    2.0753    0.0000 N   0  0  0  0  0  0  0  0  0  0  0  0
   -1.0672    3.5413    0.0000 C   0  0  0  0  0  0  0  0  0  0  0  0
   -2.4956    3.9995    0.0000 N   0  0  0  0  0  0  0  0  0  0  0  0
    0.0437    4.5491    0.0000 N   0  0  0  0  0  0  0  0  0  0  0  0
   -0.9085   -3.3308    0.0000 C   0  0  0  0  0  0  0  0  0  0  0  0
   -0.5912   -4.7968    0.0000 O   0  0  0  0  0  0  0  0  0  0  0  0
    0.2024   -2.3229    0.0000 N   0  0  0  0  0  0  0  0  0  0  0  0
    1.6308   -2.7809    0.0000 C   0  0  0  0  0  0  0  0  0  0  0  0
    1.9481   -4.2471    0.0000 C   0  0  0  0  0  0  0  0  0  0  0  0
    3.3765   -4.7051    0.0000 C   0  0  0  0  0  0  0  0  0  0  0  0
    4.4874   -3.6973    0.0000 C   0  0  0  0  0  0  0  0  0  0  0  0
    5.9157   -4.1555    0.0000 N   0  0  0  0  0  0  0  0  0  0  0  0
    7.0267   -3.1475    0.0000 C   0  0  0  0  0  0  0  0  0  0  0  0
    6.6187   -0.8000    0.0000 N   0  0  0  0  0  0  0  0  0  0  0  0
    8.4550   -3.6057    0.0000 N   0  0  0  0  0  0  0  0  0  0  0  0
    2.7417   -1.7731    0.0000 C   0  0  0  0  0  0  0  0  0  0  0  0
    2.4243   -0.3071    0.0000 O   0  0  0  0  0  0  0  0  0  0  0  0
    4.1699   -2.2313    0.0000 N   0  0  0  0  0  0  0  0  0  0  0  0
    5.2808   -1.2233    0.0000 C   0  0  0  0  0  0  0  0  0  0  0  0
    6.7092   -1.6815    0.0000 C   0  0  0  0  0  0  0  0  0  0  0  0
    7.8201   -0.6736    0.0000 C   0  0  0  0  0  0  0  0  0  0  0  0
    9.2485   -1.1317    0.0000 C   0  0  0  0  0  0  0  0  0  0  0  0
   10.3594   -0.1238    0.0000 N   0  0  0  0  0  0  0  0  0  0  0  0
   11.7878   -0.5820    0.0000 C   0  0  0  0  0  0  0  0  0  0  0  0
   12.8987    0.4260    0.0000 N   0  0  0  0  0  0  0  0  0  0  0  0
   12.1052   -2.0480    0.0000 N   0  0  0  0  0  0  0  0  0  0  0  0
    4.9636    0.2427    0.0000 C   0  0  0  0  0  0  0  0  0  0  0  0
    6.0745    1.2505    0.0000 O   0  0  0  0  0  0  0  0  0  0  0  0
    3.5352    0.7009    0.0000 N   0  0  0  0  0  0  0  0  0  0  0  0
  1  2  1  0  0  0  0
  2  3  2  0  0  0  0
  2  4  1  0  0  0  0
  4  5  1  0  0  0  0
  5  6  1  0  0  0  0
  6  7  2  0  0  0  0
  6  8  1  0  0  0  0
  9  8  1  6  0  0  0
  9 10  1  0  0  0  0
 10 11  1  0  0  0  0
 11 12  2  0  0  0  0
 12 13  1  0  0  0  0
 13 14  2  0  0  0  0
 14 15  1  0  0  0  0
 15 16  2  0  0  0  0
 11 16  1  0  0  0  0
  9 17  1  0  0  0  0
 17 18  2  0  0  0  0
 17 19  1  0  0  0  0
 19 20  1  0  0  0  0
 20 21  1  0  0  0  0
 21 22  1  0  0  0  0
 22 23  1  0  0  0  0
 23 24  1  0  0  0  0
 20 24  1  0  0  0  0
 20 25  1  0  0  0  0
 25 26  2  0  0  0  0
 25 27  1  0  0  0  0
 27 28  1  0  0  0  0
 28 29  1  0  0  0  0
 29 30  2  0  0  0  0
 29 31  1  0  0  0  0
 31 32  1  0  0  0  0
 32 33  1  0  0  0  0
 33 34  1  0  0  0  0
 34 35  1  0  0  0  0
 35 36  1  0  0  0  0
 32 36  1  0  0  0  0
 32 37  1  0  0  0  0
 37 38  2  0  0  0  0
 37 39  1  0  0  0  0
 40 39  1  6  0  0  0
 40 41  1  0  0  0  0
 41 42  1  0  0  0  0
 42 43  1  0  0  0  0
 43 44  1  0  0  0  0
 44 45  1  0  0  0  0
 45 46  2  0  0  0  0
 45 47  1  0  0  0  0
 40 48  1  0  0  0  0
 48 49  2  0  0  0  0
 48 50  1  0  0  0  0
 50 51  1  0  0  0  0
 51 52  1  0  0  0  0
 52 53  1  0  0  0  0
 53 54  1  0  0  0  0
 54 55  1  0  0  0  0
 51 55  1  0  0  0  0
 51 56  1  0  0  0  0
 56 57  2  0  0  0  0
 56 58  1  0  0  0  0
 58 59  1  0  0  0  0
 59 60  1  0  0  0  0
 60 61  2  0  0  0  0
 60 62  1  0  0  0  0
 62 63  1  0  0  0  0
 63 64  1  0  0  0  0
 64 65  1  0  0  0  0
 65 66  1  0  0  0  0
 66 67  1  0  0  0  0
 63 67  1  0  0  0  0
 63 68  1  0  0  0  0
 68 69  2  0  0  0  0
 68 70  1  0  0  0  0
 71 70  1  1  0  0  0
 71 72  1  0  0  0  0
 72 73  1  0  0  0  0
 73 74  2  0  0  0  0
 74 75  1  0  0  0  0
 75 76  2  0  0  0  0
 76 77  1  0  0  0  0
 77 78  2  0  0  0  0
 73 78  1  0  0  0  0
 71 79  1  0  0  0  0
 79 80  2  0  0  0  0
 79 81  1  0  0  0  0
 81 82  1  0  0  0  0
 82 83  1  0  0  0  0
 83 84  1  0  0  0  0
 84 85  1  0  0  0  0
 85 86  1  0  0  0  0
 82 86  1  0  0  0  0
 82 87  1  0  0  0  0
 87 88  2  0  0  0  0
 87 89  1  0  0  0  0
 89 90  1  0  0  0  0
 90 91  1  0  0  0  0
 91 92  2  0  0  0  0
 91 93  1  0  0  0  0
 93 94  1  0  0  0  0
 94 95  1  0  0  0  0
 95 96  1  0  0  0  0
 96 97  1  0  0  0  0
 97 98  1  0  0  0  0
 94 98  1  0  0  0  0
 94 99  1  0  0  0  0
 99100  2  0  0  0  0
 99101  1  0  0  0  0
101102  1  0  0  0  0
102103  1  0  0  0  0
103104  2  0  0  0  0
103105  1  0  0  0  0
106105  1  1  0  0  0
106107  1  0  0  0  0
107108  1  0  0  0  0
108109  1  0  0  0  0
109110  1  0  0  0  0
110111  1  0  0  0  0
111112  2  0  0  0  0
111113  1  0  0  0  0
106114  1  0  0  0  0
114115  2  0  0  0  0
114116  1  0  0  0  0
116117  1  0  0  0  0
117118  1  0  0  0  0
118119  1  0  0  0  0
119120  1  0  0  0  0
120121  1  0  0  0  0
117121  1  0  0  0  0
117122  1  0  0  0  0
122123  2  0  0  0  0
122124  1  0  0  0  0
125124  1  1  0  0  0
125126  1  0  0  0  0
126127  1  0  0  0  0
127128  1  0  0  0  0
128129  1  0  0  0  0
129130  1  0  0  0  0
130131  2  0  0  0  0
130132  1  0  0  0  0
125133  1  0  0  0  0
133134  2  0  0  0  0
133135  1  0  0  0  0
136135  1  1  0  0  0
136137  1  0  0  0  0
137138  1  0  0  0  0
138139  1  0  0  0  0
139140  1  0  0  0  0
140141  1  0  0  0  0
141142  2  0  0  0  0
141143  1  0  0  0  0
136144  1  0  0  0  0
144145  2  0  0  0  0
144146  1  0  0  0  0
147146  1  6  0  0  0
147148  1  0  0  0  0
148149  1  0  0  0  0
149150  1  0  0  0  0
150151  1  0  0  0  0
151152  1  0  0  0  0
152153  2  0  0  0  0
152154  1  0  0  0  0
147155  1  0  0  0  0
155156  2  0  0  0  0
155157  1  0  0  0  0
158157  1  6  0  0  0
158159  1  0  0  0  0
159160  1  0  0  0  0
160161  1  0  0  0  0
161162  1  0  0  0  0
162163  1  0  0  0  0
163164  2  0  0  0  0
163165  1  0  0  0  0
158166  1  0  0  0  0
166167  2  0  0  0  0
166168  1  0  0  0  0
M  END
> <Molecule Name>
CHEMBL3823170

> <IUPAC>
(2S)-5-carbamimidamido-N-[(1S)-4-carbamimidamido-1-{[(1S)-4-carbamimidamido-1-{[(1S)-4-carbamimidamido-1-carbamoylbutyl]carbamoyl}butyl]carbamoyl}butyl]-2-({1-[(2S)-5-carbamimidamido-2-[2-({1-[2-({1-[
(2S)-2-({1-[2-({1-[(2S)-5-carbamimidamido-2-({1-[2-({1-[(2S)-2-(2-acetamidoacetamido)-3-phenylpropanamido]cyclopentyl}formamido)acetamido]cyclopentyl}formamido)pentanamido]cyclopentyl}formamido)acetam
ido]cyclopentyl}formamido)-3-phenylpropanamido]cyclopentyl}formamido)acetamido]cyclopentyl}formamido)acetamido]pentanamido]cyclopentyl}formamido)pentanamide

> <ChEMBL_Data_Neisseria_g: Qualifier_for_MIC_Ng>
=

> <ChEMBL_Data_Neisseria_g: ASSAY_CHEMBLID>
CHEMBL3825481

> <ChEMBL_Data_Neisseria_g: DESCRIPTION_of_Assay_Ng>
Antibacterial activity against Neisseria gonorrhoeae F-18 ATCC 49226 by two fold serial dilution method

> <ChEMBL_Data_Neisseria_g: PUBMED_ID>
27387357

> <ChEMBL_Data_Neisseria_g: YEAR>
2016

> <ChEMBL_Data_Neisseria_g: JOURNAL>
Bioorg. Med. Chem.

> <ChEMBL_Data_Neisseria_g: VOLUME>
24

> <ChEMBL_Data_Neisseria_g: FIRST_PAGE>
4056

> <ChEMBL_Data_Neisseria_g: MIC_vs_Neisseria_microg_per_mL>
12.5

> <ALogP>
-6.366

> <Active>
0

> <Molecular_Weight>
2353.78

> <ChEMBL_Data_Neisseria_g: STRAIN_of_Ng>
F-18 ATCC 49226

$$$$

Generated by Molecular Materials Informatics

159167  0  0  0  0  0  0  0  0999 V2000
   -1.8189   28.8952    0.0000 C   0  0  0  0  0  0  0  0  0  0  0  0
   -0.4102   28.3797    0.0000 C   0  0  0  0  0  0  0  0  0  0  0  0
    0.7406   29.3417    0.0000 O   0  0  0  0  0  0  0  0  0  0  0  0
   -0.1523   26.9019    0.0000 N   0  0  0  0  0  0  0  0  0  0  0  0
   -1.3031   25.9399    0.0000 C   0  0  0  0  0  0  0  0  0  0  0  0
   -1.0452   24.4623    0.0000 C   0  0  0  0  0  0  0  0  0  0  0  0
    0.3973   24.8730    0.0000 O   0  0  0  0  0  0  0  0  0  0  0  0
   -2.1962   23.5001    0.0000 N   0  0  0  0  0  0  0  0  0  0  0  0
   -1.9383   22.0225    0.0000 C   0  0  0  0  0  0  0  0  0  0  0  0
   -0.5296   21.5068    0.0000 C   0  0  0  0  0  0  0  0  0  0  0  0
    0.6211   22.4690    0.0000 C   0  0  0  0  0  0  0  0  0  0  0  0
    0.3633   23.9467    0.0000 C   0  0  0  0  0  0  0  0  0  0  0  0
    1.5140   24.9088    0.0000 C   0  0  0  0  0  0  0  0  0  0  0  0
    2.9227   24.3932    0.0000 C   0  0  0  0  0  0  0  0  0  0  0  0
    3.1806   22.9156    0.0000 C   0  0  0  0  0  0  0  0  0  0  0  0
    2.0298   21.9534    0.0000 C   0  0  0  0  0  0  0  0  0  0  0  0
   -3.0891   21.0603    0.0000 C   0  0  0  0  0  0  0  0  0  0  0  0
   -4.4976   21.5758    0.0000 O   0  0  0  0  0  0  0  0  0  0  0  0
   -2.8312   19.5827    0.0000 N   0  0  0  0  0  0  0  0  0  0  0  0
   -1.4225   19.0670    0.0000 C   0  0  0  0  0  0  0  0  0  0  0  0
   -0.1520   18.2699    0.0000 C   0  0  0  0  0  0  0  0  0  0  0  0
    0.9989   19.2321    0.0000 C   0  0  0  0  0  0  0  0  0  0  0  0
    0.4395   20.6238    0.0000 C   0  0  0  0  0  0  0  0  0  0  0  0
   -1.0571   20.5219    0.0000 C   0  0  0  0  0  0  0  0  0  0  0  0
   -2.0825   17.7201    0.0000 C   0  0  0  0  0  0  0  0  0  0  0  0
   -3.5791   17.6181    0.0000 O   0  0  0  0  0  0  0  0  0  0  0  0
   -1.2460   16.4750    0.0000 N   0  0  0  0  0  0  0  0  0  0  0  0
   -1.9060   15.1280    0.0000 C   0  0  0  0  0  0  0  0  0  0  0  0
   -1.0694   13.8829    0.0000 C   0  0  0  0  0  0  0  0  0  0  0  0
    0.4271   13.9849    0.0000 O   0  0  0  0  0  0  0  0  0  0  0  0
   -1.7292   12.5360    0.0000 N   0  0  0  0  0  0  0  0  0  0  0  0
   -0.8927   11.2909    0.0000 C   0  0  0  0  0  0  0  0  0  0  0  0
   -0.5325    9.8349    0.0000 C   0  0  0  0  0  0  0  0  0  0  0  0
    0.9087    9.4187    0.0000 C   0  0  0  0  0  0  0  0  0  0  0  0
    1.9895   10.4589    0.0000 C   0  0  0  0  0  0  0  0  0  0  0  0
    1.6293   11.9149    0.0000 C   0  0  0  0  0  0  0  0  0  0  0  0
    0.1882   12.3309    0.0000 C   0  0  0  0  0  0  0  0  0  0  0  0
   -2.2642   10.6832    0.0000 C   0  0  0  0  0  0  0  0  0  0  0  0
   -3.4761   11.5671    0.0000 O   0  0  0  0  0  0  0  0  0  0  0  0
   -2.4236    9.1918    0.0000 N   0  0  0  0  0  0  0  0  0  0  0  0
   -3.7951    8.5842    0.0000 C   0  0  0  0  0  0  0  0  0  0  0  0
   -3.9545    7.0925    0.0000 C   0  0  0  0  0  0  0  0  0  0  0  0
   -2.7425    6.2087    0.0000 C   0  0  0  0  0  0  0  0  0  0  0  0
   -2.9020    4.7173    0.0000 C   0  0  0  0  0  0  0  0  0  0  0  0
   -1.6900    3.8334    0.0000 C   0  0  0  0  0  0  0  0  0  0  0  0
   -0.3185    4.4411    0.0000 N   0  0  0  0  0  0  0  0  0  0  0  0
   -5.0069    9.4680    0.0000 C   0  0  0  0  0  0  0  0  0  0  0  0
   -4.8474   10.9594    0.0000 O   0  0  0  0  0  0  0  0  0  0  0  0
   -6.3783    8.8603    0.0000 N   0  0  0  0  0  0  0  0  0  0  0  0
   -7.5903    9.7442    0.0000 C   0  0  0  0  0  0  0  0  0  0  0  0
   -8.9596   10.3567    0.0000 C   0  0  0  0  0  0  0  0  0  0  0  0
   -8.8001   11.8481    0.0000 C   0  0  0  0  0  0  0  0  0  0  0  0
   -7.3323   12.1574    0.0000 C   0  0  0  0  0  0  0  0  0  0  0  0
   -6.5847   10.8571    0.0000 C   0  0  0  0  0  0  0  0  0  0  0  0
   -8.3427    8.4463    0.0000 C   0  0  0  0  0  0  0  0  0  0  0  0
   -9.7683    8.9125    0.0000 O   0  0  0  0  0  0  0  0  0  0  0  0
   -7.5949    7.1460    0.0000 N   0  0  0  0  0  0  0  0  0  0  0  0
   -6.5932    6.0294    0.0000 C   0  0  0  0  0  0  0  0  0  0  0  0
   -7.0592    4.6038    0.0000 C   0  0  0  0  0  0  0  0  0  0  0  0
   -5.6880    5.2114    0.0000 O   0  0  0  0  0  0  0  0  0  0  0  0
   -8.5270    4.2945    0.0000 N   0  0  0  0  0  0  0  0  0  0  0  0
   -9.5287    5.4111    0.0000 C   0  0  0  0  0  0  0  0  0  0  0  0
  -10.8519    6.1176    0.0000 C   0  0  0  0  0  0  0  0  0  0  0  0
  -10.9016    7.6167    0.0000 C   0  0  0  0  0  0  0  0  0  0  0  0
   -9.6281    8.4094    0.0000 C   0  0  0  0  0  0  0  0  0  0  0  0
   -8.3049    7.7029    0.0000 C   0  0  0  0  0  0  0  0  0  0  0  0
   -8.2552    6.2036    0.0000 C   0  0  0  0  0  0  0  0  0  0  0  0
  -10.4543    4.2307    0.0000 C   0  0  0  0  0  0  0  0  0  0  0  0
  -11.9394    4.4420    0.0000 O   0  0  0  0  0  0  0  0  0  0  0  0
   -9.8949    2.8389    0.0000 N   0  0  0  0  0  0  0  0  0  0  0  0
   -8.4099    2.6275    0.0000 C   0  0  0  0  0  0  0  0  0  0  0  0
   -7.4843    3.8078    0.0000 C   0  0  0  0  0  0  0  0  0  0  0  0
   -5.9992    3.5964    0.0000 C   0  0  0  0  0  0  0  0  0  0  0  0
   -5.0736    4.7769    0.0000 C   0  0  0  0  0  0  0  0  0  0  0  0
   -3.5887    4.5654    0.0000 C   0  0  0  0  0  0  0  0  0  0  0  0
   -3.0292    3.1736    0.0000 C   0  0  0  0  0  0  0  0  0  0  0  0
   -3.9549    1.9933    0.0000 C   0  0  0  0  0  0  0  0  0  0  0  0
   -5.4398    2.2047    0.0000 C   0  0  0  0  0  0  0  0  0  0  0  0
   -7.8505    1.2356    0.0000 C   0  0  0  0  0  0  0  0  0  0  0  0
   -6.3654    1.0244    0.0000 O   0  0  0  0  0  0  0  0  0  0  0  0
   -8.7761    0.0553    0.0000 N   0  0  0  0  0  0  0  0  0  0  0  0
  -10.2610    0.2667    0.0000 C   0  0  0  0  0  0  0  0  0  0  0  0
  -11.7576    0.1647    0.0000 C   0  0  0  0  0  0  0  0  0  0  0  0
  -12.3170    1.5565    0.0000 C   0  0  0  0  0  0  0  0  0  0  0  0
  -11.1663    2.5187    0.0000 C   0  0  0  0  0  0  0  0  0  0  0  0
   -9.8956    1.7216    0.0000 C   0  0  0  0  0  0  0  0  0  0  0  0
  -10.3161   -1.2322    0.0000 C   0  0  0  0  0  0  0  0  0  0  0  0
  -11.6418   -1.9340    0.0000 O   0  0  0  0  0  0  0  0  0  0  0  0
   -9.0454   -2.0294    0.0000 N   0  0  0  0  0  0  0  0  0  0  0  0
   -9.1005   -3.5283    0.0000 C   0  0  0  0  0  0  0  0  0  0  0  0
   -7.8298   -4.3254    0.0000 C   0  0  0  0  0  0  0  0  0  0  0  0
   -6.5041   -3.6236    0.0000 O   0  0  0  0  0  0  0  0  0  0  0  0
   -7.8849   -5.8245    0.0000 N   0  0  0  0  0  0  0  0  0  0  0  0
   -9.2105   -6.5263    0.0000 C   0  0  0  0  0  0  0  0  0  0  0  0
  -10.2161   -7.6392    0.0000 C   0  0  0  0  0  0  0  0  0  0  0  0
  -11.6828   -7.3247    0.0000 C   0  0  0  0  0  0  0  0  0  0  0  0
  -12.1438   -5.8974    0.0000 C   0  0  0  0  0  0  0  0  0  0  0  0
  -11.1381   -4.7845    0.0000 C   0  0  0  0  0  0  0  0  0  0  0  0
   -9.6716   -5.0989    0.0000 C   0  0  0  0  0  0  0  0  0  0  0  0
   -8.2892   -7.7100    0.0000 C   0  0  0  0  0  0  0  0  0  0  0  0
   -6.8034   -7.5038    0.0000 O   0  0  0  0  0  0  0  0  0  0  0  0
   -8.8536   -9.0998    0.0000 N   0  0  0  0  0  0  0  0  0  0  0  0
   -7.9321  -10.2834    0.0000 C   0  0  0  0  0  0  0  0  0  0  0  0
   -8.4965  -11.6732    0.0000 C   0  0  0  0  0  0  0  0  0  0  0  0
   -9.9823  -11.8792    0.0000 O   0  0  0  0  0  0  0  0  0  0  0  0
   -7.5752  -12.8569    0.0000 N   0  0  0  0  0  0  0  0  0  0  0  0
   -8.1396  -14.2467    0.0000 C   0  0  0  0  0  0  0  0  0  0  0  0
   -9.6252  -14.4527    0.0000 C   0  0  0  0  0  0  0  0  0  0  0  0
  -10.1898  -15.8425    0.0000 C   0  0  0  0  0  0  0  0  0  0  0  0
  -11.6754  -16.0487    0.0000 C   0  0  0  0  0  0  0  0  0  0  0  0
  -12.2398  -17.4383    0.0000 C   0  0  0  0  0  0  0  0  0  0  0  0
  -13.7256  -17.6445    0.0000 N   0  0  0  0  0  0  0  0  0  0  0  0
   -7.2181  -15.4303    0.0000 C   0  0  0  0  0  0  0  0  0  0  0  0
   -7.7825  -16.8199    0.0000 O   0  0  0  0  0  0  0  0  0  0  0  0
   -5.7323  -15.2241    0.0000 N   0  0  0  0  0  0  0  0  0  0  0  0
   -4.8111  -16.4078    0.0000 C   0  0  0  0  0  0  0  0  0  0  0  0
   -3.6636  -17.3739    0.0000 C   0  0  0  0  0  0  0  0  0  0  0  0
   -4.2280  -18.7637    0.0000 C   0  0  0  0  0  0  0  0  0  0  0  0
   -5.7241  -18.6565    0.0000 C   0  0  0  0  0  0  0  0  0  0  0  0
   -6.0845  -17.2005    0.0000 C   0  0  0  0  0  0  0  0  0  0  0  0
   -3.7301  -15.3678    0.0000 C   0  0  0  0  0  0  0  0  0  0  0  0
   -4.0905  -13.9116    0.0000 O   0  0  0  0  0  0  0  0  0  0  0  0
   -2.2891  -15.7838    0.0000 N   0  0  0  0  0  0  0  0  0  0  0  0
   -1.2082  -14.7438    0.0000 C   0  0  0  0  0  0  0  0  0  0  0  0
   -1.5683  -13.2876    0.0000 C   0  0  0  0  0  0  0  0  0  0  0  0
   -3.0096  -12.8716    0.0000 C   0  0  0  0  0  0  0  0  0  0  0  0
   -3.3698  -11.4156    0.0000 C   0  0  0  0  0  0  0  0  0  0  0  0
   -4.8111  -10.9994    0.0000 C   0  0  0  0  0  0  0  0  0  0  0  0
   -5.1712   -9.5434    0.0000 N   0  0  0  0  0  0  0  0  0  0  0  0
    0.2329  -15.1598    0.0000 C   0  0  0  0  0  0  0  0  0  0  0  0
    0.5933  -16.6158    0.0000 O   0  0  0  0  0  0  0  0  0  0  0  0
    1.3138  -14.1196    0.0000 N   0  0  0  0  0  0  0  0  0  0  0  0
    2.7551  -14.5358    0.0000 C   0  0  0  0  0  0  0  0  0  0  0  0
    3.1153  -15.9918    0.0000 C   0  0  0  0  0  0  0  0  0  0  0  0
    4.5566  -16.4078    0.0000 C   0  0  0  0  0  0  0  0  0  0  0  0
    4.9167  -17.8639    0.0000 C   0  0  0  0  0  0  0  0  0  0  0  0
    6.3578  -18.2799    0.0000 C   0  0  0  0  0  0  0  0  0  0  0  0
    6.7182  -19.7359    0.0000 N   0  0  0  0  0  0  0  0  0  0  0  0
    3.8358  -13.4956    0.0000 C   0  0  0  0  0  0  0  0  0  0  0  0
    3.4756  -12.0396    0.0000 O   0  0  0  0  0  0  0  0  0  0  0  0
    5.2771  -13.9116    0.0000 N   0  0  0  0  0  0  0  0  0  0  0  0
    6.3578  -12.8716    0.0000 C   0  0  0  0  0  0  0  0  0  0  0  0
    5.9976  -11.4156    0.0000 C   0  0  0  0  0  0  0  0  0  0  0  0
    4.5566  -10.9994    0.0000 C   0  0  0  0  0  0  0  0  0  0  0  0
    4.1962   -9.5434    0.0000 C   0  0  0  0  0  0  0  0  0  0  0  0
    2.7551   -9.1274    0.0000 C   0  0  0  0  0  0  0  0  0  0  0  0
    2.3947   -7.6712    0.0000 N   0  0  0  0  0  0  0  0  0  0  0  0
    7.7991  -13.2876    0.0000 C   0  0  0  0  0  0  0  0  0  0  0  0
    8.1593  -14.7438    0.0000 O   0  0  0  0  0  0  0  0  0  0  0  0
    8.8800  -12.2476    0.0000 N   0  0  0  0  0  0  0  0  0  0  0  0
   10.3211  -12.6636    0.0000 C   0  0  0  0  0  0  0  0  0  0  0  0
   11.4020  -11.6236    0.0000 C   0  0  0  0  0  0  0  0  0  0  0  0
   12.8431  -12.0396    0.0000 C   0  0  0  0  0  0  0  0  0  0  0  0
   13.9240  -10.9994    0.0000 C   0  0  0  0  0  0  0  0  0  0  0  0
   15.3651  -11.4156    0.0000 C   0  0  0  0  0  0  0  0  0  0  0  0
   16.4460  -10.3754    0.0000 N   0  0  0  0  0  0  0  0  0  0  0  0
   10.6813  -14.1196    0.0000 C   0  0  0  0  0  0  0  0  0  0  0  0
   12.1225  -14.5358    0.0000 O   0  0  0  0  0  0  0  0  0  0  0  0
    9.6005  -15.1598    0.0000 N   0  0  0  0  0  0  0  0  0  0  0  0
  1  2  1  0  0  0  0
  2  3  2  0  0  0  0
  2  4  1  0  0  0  0
  4  5  1  0  0  0  0
  5  6  1  0  0  0  0
  6  7  2  0  0  0  0
  6  8  1  0  0  0  0
  9  8  1  1  0  0  0
  9 10  1  0  0  0  0
 10 11  1  0  0  0  0
 11 12  2  0  0  0  0
 12 13  1  0  0  0  0
 13 14  2  0  0  0  0
 14 15  1  0  0  0  0
 15 16  2  0  0  0  0
 11 16  1  0  0  0  0
  9 17  1  0  0  0  0
 17 18  2  0  0  0  0
 17 19  1  0  0  0  0
 19 20  1  0  0  0  0
 20 21  1  0  0  0  0
 21 22  1  0  0  0  0
 22 23  1  0  0  0  0
 23 24  1  0  0  0  0
 20 24  1  0  0  0  0
 20 25  1  0  0  0  0
 25 26  2  0  0  0  0
 25 27  1  0  0  0  0
 27 28  1  0  0  0  0
 28 29  1  0  0  0  0
 29 30  2  0  0  0  0
 29 31  1  0  0  0  0
 31 32  1  0  0  0  0
 32 33  1  0  0  0  0
 33 34  1  0  0  0  0
 34 35  1  0  0  0  0
 35 36  1  0  0  0  0
 36 37  1  0  0  0  0
 32 37  1  0  0  0  0
 32 38  1  0  0  0  0
 38 39  2  0  0  0  0
 38 40  1  0  0  0  0
 41 40  1  1  0  0  0
 41 42  1  0  0  0  0
 42 43  1  0  0  0  0
 43 44  1  0  0  0  0
 44 45  1  0  0  0  0
 45 46  1  0  0  0  0
 41 47  1  0  0  0  0
 47 48  2  0  0  0  0
 47 49  1  0  0  0  0
 49 50  1  0  0  0  0
 50 51  1  0  0  0  0
 51 52  1  0  0  0  0
 52 53  1  0  0  0  0
 53 54  1  0  0  0  0
 50 54  1  0  0  0  0
 50 55  1  0  0  0  0
 55 56  2  0  0  0  0
 55 57  1  0  0  0  0
 57 58  1  0  0  0  0
 58 59  1  0  0  0  0
 59 60  2  0  0  0  0
 59 61  1  0  0  0  0
 61 62  1  0  0  0  0
 62 63  1  0  0  0  0
 63 64  1  0  0  0  0
 64 65  1  0  0  0  0
 65 66  1  0  0  0  0
 66 67  1  0  0  0  0
 62 67  1  0  0  0  0
 62 68  1  0  0  0  0
 68 69  2  0  0  0  0
 68 70  1  0  0  0  0
 71 70  1  1  0  0  0
 71 72  1  0  0  0  0
 72 73  1  0  0  0  0
 73 74  2  0  0  0  0
 74 75  1  0  0  0  0
 75 76  2  0  0  0  0
 76 77  1  0  0  0  0
 77 78  2  0  0  0  0
 73 78  1  0  0  0  0
 71 79  1  0  0  0  0
 79 80  2  0  0  0  0
 79 81  1  0  0  0  0
 81 82  1  0  0  0  0
 82 83  1  0  0  0  0
 83 84  1  0  0  0  0
 84 85  1  0  0  0  0
 85 86  1  0  0  0  0
 82 86  1  0  0  0  0
 82 87  1  0  0  0  0
 87 88  2  0  0  0  0
 87 89  1  0  0  0  0
 89 90  1  0  0  0  0
 90 91  1  0  0  0  0
 91 92  2  0  0  0  0
 91 93  1  0  0  0  0
 93 94  1  0  0  0  0
 94 95  1  0  0  0  0
 95 96  1  0  0  0  0
 96 97  1  0  0  0  0
 97 98  1  0  0  0  0
 98 99  1  0  0  0  0
 94 99  1  0  0  0  0
 94100  1  0  0  0  0
100101  2  0  0  0  0
100102  1  0  0  0  0
102103  1  0  0  0  0
103104  1  0  0  0  0
104105  2  0  0  0  0
104106  1  0  0  0  0
107106  1  6  0  0  0
107108  1  0  0  0  0
108109  1  0  0  0  0
109110  1  0  0  0  0
110111  1  0  0  0  0
111112  1  0  0  0  0
107113  1  0  0  0  0
113114  2  0  0  0  0
113115  1  0  0  0  0
115116  1  0  0  0  0
116117  1  0  0  0  0
117118  1  0  0  0  0
118119  1  0  0  0  0
119120  1  0  0  0  0
116120  1  0  0  0  0
116121  1  0  0  0  0
121122  2  0  0  0  0
121123  1  0  0  0  0
124123  1  1  0  0  0
124125  1  0  0  0  0
125126  1  0  0  0  0
126127  1  0  0  0  0
127128  1  0  0  0  0
128129  1  0  0  0  0
124130  1  0  0  0  0
130131  2  0  0  0  0
130132  1  0  0  0  0
133132  1  6  0  0  0
133134  1  0  0  0  0
134135  1  0  0  0  0
135136  1  0  0  0  0
136137  1  0  0  0  0
137138  1  0  0  0  0
133139  1  0  0  0  0
139140  2  0  0  0  0
139141  1  0  0  0  0
142141  1  1  0  0  0
142143  1  0  0  0  0
143144  1  0  0  0  0
144145  1  0  0  0  0
145146  1  0  0  0  0
146147  1  0  0  0  0
142148  1  0  0  0  0
148149  2  0  0  0  0
148150  1  0  0  0  0
151150  1  1  0  0  0
151152  1  0  0  0  0
152153  1  0  0  0  0
153154  1  0  0  0  0
154155  1  0  0  0  0
155156  1  0  0  0  0
151157  1  0  0  0  0
157158  2  0  0  0  0
157159  1  0  0  0  0
M  END
> <Molecule Name>
CHEMBL3822471

> <IUPAC>
(2S)-6-amino-N-[(1S)-5-amino-1-{[(1S)-5-amino-1-{[(1S)-5-amino-1-carbamoylpentyl]carbamoyl}pentyl]carbamoyl}pentyl]-2-({1-[(2S)-6-amino-2-[2-({1-[2-({1-[(2S)-2-({1-[2-({1-[(2S)-6-amino-2-({1-[2-({1-[(
2S)-2-(2-acetamidoacetamido)-3-phenylpropanamido]cyclopentyl}formamido)acetamido]cyclohexyl}formamido)hexanamido]cyclopentyl}formamido)acetamido]cyclohexyl}formamido)-3-phenylpropanamido]cyclopentyl}f
ormamido)acetamido]cyclohexyl}formamido)acetamido]hexanamido]cyclopentyl}formamido)hexanamide

> <ChEMBL_Data_Neisseria_g: Qualifier_for_MIC_Ng>
=

> <ChEMBL_Data_Neisseria_g: ASSAY_CHEMBLID>
CHEMBL3825481

> <ChEMBL_Data_Neisseria_g: DESCRIPTION_of_Assay_Ng>
Antibacterial activity against Neisseria gonorrhoeae F-18 ATCC 49226 by two fold serial dilution method

> <ChEMBL_Data_Neisseria_g: PUBMED_ID>
27387357

> <ChEMBL_Data_Neisseria_g: YEAR>
2016

> <ChEMBL_Data_Neisseria_g: JOURNAL>
Bioorg. Med. Chem.

> <ChEMBL_Data_Neisseria_g: VOLUME>
24

> <ChEMBL_Data_Neisseria_g: FIRST_PAGE>
4056

> <ChEMBL_Data_Neisseria_g: MIC_vs_Neisseria_microg_per_mL>
25

> <ALogP>
-1.456

> <Active>
0

> <Molecular_Weight>
2227.78

> <ChEMBL_Data_Neisseria_g: STRAIN_of_Ng>
F-18 ATCC 49226

$$$$

Generated by Molecular Materials Informatics

 60 65  0  0  0  0  0  0  0  0999 V2000
   -3.6836  -13.3484    0.0000 C   0  0  0  0  0  0  0  0  0  0  0  0
   -3.6498  -11.8487    0.0000 C   0  0  0  0  0  0  0  0  0  0  0  0
   -4.9316  -11.0697    0.0000 C   0  0  0  0  0  0  0  0  0  0  0  0
   -4.8978   -9.5700    0.0000 C   0  0  0  0  0  0  0  0  0  0  0  0
   -3.5824   -8.8495    0.0000 C   0  0  0  0  0  0  0  0  0  0  0  0
   -3.5485   -7.3499    0.0000 C   0  0  0  0  0  0  0  0  0  0  0  0
   -2.2329   -6.6293    0.0000 C   0  0  0  0  0  0  0  0  0  0  0  0
   -1.6538   -8.0130    0.0000 O   0  0  0  0  0  0  0  0  0  0  0  0
   -2.1991   -5.1297    0.0000 N   0  0  0  0  0  0  0  0  0  0  0  0
   -0.8837   -4.4092    0.0000 C   0  0  0  0  0  0  0  0  0  0  0  0
    0.3981   -5.1883    0.0000 C   0  0  0  0  0  0  0  0  0  0  0  0
    0.3645   -6.6879    0.0000 C   0  0  0  0  0  0  0  0  0  0  0  0
    1.6463   -7.4670    0.0000 C   0  0  0  0  0  0  0  0  0  0  0  0
    1.6125   -8.9664    0.0000 C   0  0  0  0  0  0  0  0  0  0  0  0
    2.8943   -9.7455    0.0000 F   0  0  0  0  0  0  0  0  0  0  0  0
    0.2969   -9.6871    0.0000 C   0  0  0  0  0  0  0  0  0  0  0  0
   -0.9849   -8.9080    0.0000 C   0  0  0  0  0  0  0  0  0  0  0  0
   -2.3004   -9.6286    0.0000 F   0  0  0  0  0  0  0  0  0  0  0  0
   -0.9511   -7.4084    0.0000 C   0  0  0  0  0  0  0  0  0  0  0  0
   -0.8498   -2.9096    0.0000 C   0  0  0  0  0  0  0  0  0  0  0  0
   -2.1316   -2.1305    0.0000 O   0  0  0  0  0  0  0  0  0  0  0  0
    0.4658   -2.1890    0.0000 N   0  0  0  0  0  0  0  0  0  0  0  0
    0.4996   -0.6894    0.0000 C   0  0  0  0  0  0  0  0  0  0  0  0
   -0.7822    0.0897    0.0000 C   0  0  0  0  0  0  0  0  0  0  0  0
   -0.7486    1.5893    0.0000 O   0  0  0  0  0  0  0  0  0  0  0  0
   -2.0304    2.3682    0.0000 C   0  0  0  0  0  0  0  0  0  0  0  0
   -3.3458    1.6477    0.0000 O   0  0  0  0  0  0  0  0  0  0  0  0
   -1.9966    3.8678    0.0000 C   0  0  0  0  0  0  0  0  0  0  0  0
   -3.0884    4.8964    0.0000 C   0  0  0  0  0  0  0  0  0  0  0  0
   -2.4476    6.2527    0.0000 C   0  0  0  0  0  0  0  0  0  0  0  0
   -3.1682    7.5682    0.0000 C   0  0  0  0  0  0  0  0  0  0  0  0
   -0.9597    6.0624    0.0000 C   0  0  0  0  0  0  0  0  0  0  0  0
   -0.6809    4.5884    0.0000 N   0  0  0  0  0  0  0  0  0  0  0  0
    0.6009    3.8095    0.0000 C   0  0  0  0  0  0  0  0  0  0  0  0
    0.5671    2.3099    0.0000 O   0  0  0  0  0  0  0  0  0  0  0  0
    1.9165    4.5300    0.0000 C   0  0  0  0  0  0  0  0  0  0  0  0
    1.9501    6.0296    0.0000 C   0  0  0  0  0  0  0  0  0  0  0  0
    0.6683    6.8085    0.0000 C   0  0  0  0  0  0  0  0  0  0  0  0
    3.1983    3.7509    0.0000 N   0  0  0  0  0  0  0  0  0  0  0  0
    4.5137    4.4715    0.0000 C   0  0  0  0  0  0  0  0  0  0  0  0
    4.5476    5.9711    0.0000 O   0  0  0  0  0  0  0  0  0  0  0  0
    5.7956    3.6924    0.0000 C   0  0  0  0  0  0  0  0  0  0  0  0
    5.7619    2.1928    0.0000 N   0  0  0  0  0  0  0  0  0  0  0  0
    7.0437    1.4137    0.0000 C   0  0  0  0  0  0  0  0  0  0  0  0
    8.3593    2.1344    0.0000 C   0  0  0  0  0  0  0  0  0  0  0  0
    8.3930    3.6340    0.0000 C   0  0  0  0  0  0  0  0  0  0  0  0
    9.7086    4.3546    0.0000 C   0  0  0  0  0  0  0  0  0  0  0  0
    9.7424    5.8542    0.0000 C   0  0  0  0  0  0  0  0  0  0  0  0
    8.4606    6.6331    0.0000 C   0  0  0  0  0  0  0  0  0  0  0  0
    7.1450    5.9125    0.0000 C   0  0  0  0  0  0  0  0  0  0  0  0
    7.1112    4.4129    0.0000 C   0  0  0  0  0  0  0  0  0  0  0  0
    4.4463    1.4722    0.0000 C   0  0  0  0  0  0  0  0  0  0  0  0
    3.1645    2.2513    0.0000 O   0  0  0  0  0  0  0  0  0  0  0  0
    4.4125   -0.0274    0.0000 C   0  0  0  0  0  0  0  0  0  0  0  0
    5.5043   -1.0559    0.0000 C   0  0  0  0  0  0  0  0  0  0  0  0
    4.8636   -2.4121    0.0000 C   0  0  0  0  0  0  0  0  0  0  0  0
    3.3758   -2.2217    0.0000 C   0  0  0  0  0  0  0  0  0  0  0  0
    3.0968   -0.7479    0.0000 N   0  0  0  0  0  0  0  0  0  0  0  0
    1.8150    0.0311    0.0000 C   0  0  0  0  0  0  0  0  0  0  0  0
    1.8489    1.5308    0.0000 O   0  0  0  0  0  0  0  0  0  0  0  0
  1  2  1  0  0  0  0
  2  3  1  0  0  0  0
  3  4  1  0  0  0  0
  4  5  1  0  0  0  0
  5  6  2  0  0  0  0
  6  7  1  0  0  0  0
  7  8  2  0  0  0  0
  7  9  1  0  0  0  0
 10  9  1  6  0  0  0
 10 11  1  0  0  0  0
 11 12  1  0  0  0  0
 12 13  2  0  0  0  0
 13 14  1  0  0  0  0
 14 15  1  0  0  0  0
 14 16  2  0  0  0  0
 16 17  1  0  0  0  0
 17 18  1  0  0  0  0
 17 19  2  0  0  0  0
 12 19  1  0  0  0  0
 10 20  1  0  0  0  0
 20 21  2  0  0  0  0
 20 22  1  0  0  0  0
 23 22  1  1  0  0  0
 23 24  1  0  0  0  0
 24 25  1  0  0  0  0
 25 26  1  0  0  0  0
 26 27  2  0  0  0  0
 26 28  1  0  0  0  0
 28 29  1  0  0  0  0
 29 30  1  0  0  0  0
 30 31  1  1  0  0  0
 30 32  1  0  0  0  0
 32 33  1  0  0  0  0
 28 33  1  6  0  0  0
 33 34  1  0  0  0  0
 34 35  2  0  0  0  0
 34 36  1  0  0  0  0
 36 37  1  6  0  0  0
 37 38  1  0  0  0  0
 36 39  1  0  0  0  0
 39 40  1  0  0  0  0
 40 41  2  0  0  0  0
 40 42  1  0  0  0  0
 42 43  1  6  0  0  0
 43 44  1  0  0  0  0
 44 45  1  0  0  0  0
 45 46  1  0  0  0  0
 46 47  2  0  0  0  0
 47 48  1  0  0  0  0
 48 49  2  0  0  0  0
 49 50  1  0  0  0  0
 50 51  2  0  0  0  0
 42 51  1  0  0  0  0
 46 51  1  0  0  0  0
 43 52  1  0  0  0  0
 52 53  2  0  0  0  0
 52 54  1  0  0  0  0
 54 55  1  0  0  0  0
 55 56  1  0  0  0  0
 56 57  1  0  0  0  0
 57 58  1  0  0  0  0
 54 58  1  6  0  0  0
 58 59  1  0  0  0  0
 23 59  1  0  0  0  0
 59 60  2  0  0  0  0
M  END
> <Molecule Name>
CHEMBL3765706

> <IUPAC>
(2E)-N-[(1S)-2-(3,5-difluorophenyl)-1-{[(3S,9S,13S,15R,19S,22S)-19-ethyl-15-methyl-2,8,12,18,21-pentaoxo-11-oxa-1,7,17,20-tetraazapentacyclo[20.8.0.0,.0,.0,]triaconta-23,25,27-t
rien-9-yl]carbamoyl}ethyl]hept-2-enamide

> <Collections>
Set2_NotListedAsBetaLactamResistant (mostly)

> <ChEMBL_Data_Neisseria_g: NUM_RO5_VIOLATIONS>
1

> <ChEMBL_Data_Neisseria_g: Qualifier_for_MIC_Ng>
=

> <ChEMBL_Data_Neisseria_g: ASSAY_CHEMBLID>
CHEMBL3766315

> <ChEMBL_Data_Neisseria_g: DESCRIPTION_of_Assay_Ng>
Antibacterial activity against chloramphenicol-resistant Neisseria gonorrhoeae N.279 incubated for 16 to 18 hrs by broth microdilution method

> <ChEMBL_Data_Neisseria_g: PUBMED_ID>
26818454

> <ChEMBL_Data_Neisseria_g: YEAR>
2016

> <ChEMBL_Data_Neisseria_g: JOURNAL>
J. Med. Chem.

> <ChEMBL_Data_Neisseria_g: VOLUME>
59

> <ChEMBL_Data_Neisseria_g: FIRST_PAGE>
624

> <ChEMBL_Data_Neisseria_g: MIC_vs_Neisseria_microg_per_mL>
8

> <ALogP>
4.184

> <Active>
1

> <Molecular_Weight>
832.932

> <ChEMBL_Data_Neisseria_g: STRAIN_of_Ng>
N.279

$$$$

Generated by Molecular Materials Informatics

 55 59  0  0  0  0  0  0  0  0999 V2000
   19.1610    8.1308    0.0000 C   0  0  0  0  0  0  0  0  0  0  0  0
   17.7288    8.5770    0.0000 C   0  0  0  0  0  0  0  0  0  0  0  0
   16.6265    7.5597    0.0000 C   0  0  0  0  0  0  0  0  0  0  0  0
   15.1943    8.0059    0.0000 C   0  0  0  0  0  0  0  0  0  0  0  0
   14.0920    6.9887    0.0000 C   0  0  0  0  0  0  0  0  0  0  0  0
   12.6598    7.4348    0.0000 C   0  0  0  0  0  0  0  0  0  0  0  0
   11.5574    6.4176    0.0000 C   0  0  0  0  0  0  0  0  0  0  0  0
   12.6843    5.4276    0.0000 O   0  0  0  0  0  0  0  0  0  0  0  0
   10.1253    6.8636    0.0000 N   0  0  0  0  0  0  0  0  0  0  0  0
    9.0229    5.8465    0.0000 C   0  0  0  0  0  0  0  0  0  0  0  0
    9.3527    4.3832    0.0000 C   0  0  0  0  0  0  0  0  0  0  0  0
   10.7847    3.9371    0.0000 C   0  0  0  0  0  0  0  0  0  0  0  0
   11.8873    4.9543    0.0000 C   0  0  0  0  0  0  0  0  0  0  0  0
   13.3192    4.5081    0.0000 C   0  0  0  0  0  0  0  0  0  0  0  0
   14.4218    5.5254    0.0000 F   0  0  0  0  0  0  0  0  0  0  0  0
   13.6491    3.0449    0.0000 C   0  0  0  0  0  0  0  0  0  0  0  0
   12.5467    2.0276    0.0000 C   0  0  0  0  0  0  0  0  0  0  0  0
   12.8763    0.5644    0.0000 F   0  0  0  0  0  0  0  0  0  0  0  0
   11.1145    2.4738    0.0000 C   0  0  0  0  0  0  0  0  0  0  0  0
    7.5908    6.2925    0.0000 C   0  0  0  0  0  0  0  0  0  0  0  0
    7.2611    7.7557    0.0000 O   0  0  0  0  0  0  0  0  0  0  0  0
    6.4884    5.2754    0.0000 N   0  0  0  0  0  0  0  0  0  0  0  0
    6.8182    3.8120    0.0000 C   0  0  0  0  0  0  0  0  0  0  0  0
    8.2504    3.3660    0.0000 C   0  0  0  0  0  0  0  0  0  0  0  0
    8.5800    1.9027    0.0000 N   0  0  0  0  0  0  0  0  0  0  0  0
   10.0122    1.4565    0.0000 C   0  0  0  0  0  0  0  0  0  0  0  0
   11.5018    1.6316    0.0000 O   0  0  0  0  0  0  0  0  0  0  0  0
   10.3418   -0.0067    0.0000 C   0  0  0  0  0  0  0  0  0  0  0  0
   11.6500   -0.7409    0.0000 C   0  0  0  0  0  0  0  0  0  0  0  0
   11.3560   -2.2118    0.0000 C   0  0  0  0  0  0  0  0  0  0  0  0
   12.3732   -3.3141    0.0000 C   0  0  0  0  0  0  0  0  0  0  0  0
    9.8662   -2.3867    0.0000 C   0  0  0  0  0  0  0  0  0  0  0  0
    9.2395   -1.0240    0.0000 N   0  0  0  0  0  0  0  0  0  0  0  0
    7.8073   -0.5778    0.0000 C   0  0  0  0  0  0  0  0  0  0  0  0
    7.4777    0.8855    0.0000 O   0  0  0  0  0  0  0  0  0  0  0  0
    6.7049   -1.5951    0.0000 C   0  0  0  0  0  0  0  0  0  0  0  0
    7.0348   -3.0583    0.0000 C   0  0  0  0  0  0  0  0  0  0  0  0
    5.2730   -1.1489    0.0000 N   0  0  0  0  0  0  0  0  0  0  0  0
    4.1704   -2.1662    0.0000 C   0  0  0  0  0  0  0  0  0  0  0  0
    4.5002   -3.6294    0.0000 O   0  0  0  0  0  0  0  0  0  0  0  0
    2.7384   -1.7202    0.0000 C   0  0  0  0  0  0  0  0  0  0  0  0
    1.6361   -2.7372    0.0000 C   0  0  0  0  0  0  0  0  0  0  0  0
    0.2039   -2.2912    0.0000 C   0  0  0  0  0  0  0  0  0  0  0  0
   -0.1259   -0.8278    0.0000 C   0  0  0  0  0  0  0  0  0  0  0  0
    0.9765    0.1893    0.0000 C   0  0  0  0  0  0  0  0  0  0  0  0
    2.4086   -0.2567    0.0000 N   0  0  0  0  0  0  0  0  0  0  0  0
    3.5110    0.7604    0.0000 C   0  0  0  0  0  0  0  0  0  0  0  0
    4.9431    0.3144    0.0000 O   0  0  0  0  0  0  0  0  0  0  0  0
    3.1813    2.2238    0.0000 C   0  0  0  0  0  0  0  0  0  0  0  0
    1.8732    2.9578    0.0000 C   0  0  0  0  0  0  0  0  0  0  0  0
    2.1672    4.4287    0.0000 C   0  0  0  0  0  0  0  0  0  0  0  0
    3.6570    4.6038    0.0000 C   0  0  0  0  0  0  0  0  0  0  0  0
    4.2837    3.2409    0.0000 N   0  0  0  0  0  0  0  0  0  0  0  0
    5.7159    2.7949    0.0000 C   0  0  0  0  0  0  0  0  0  0  0  0
    6.0455    1.3316    0.0000 O   0  0  0  0  0  0  0  0  0  0  0  0
  1  2  1  0  0  0  0
  2  3  1  0  0  0  0
  3  4  1  0  0  0  0
  4  5  1  0  0  0  0
  5  6  2  0  0  0  0
  6  7  1  0  0  0  0
  7  8  2  0  0  0  0
  7  9  1  0  0  0  0
 10  9  1  1  0  0  0
 10 11  1  0  0  0  0
 11 12  1  0  0  0  0
 12 13  2  0  0  0  0
 13 14  1  0  0  0  0
 14 15  1  0  0  0  0
 14 16  2  0  0  0  0
 16 17  1  0  0  0  0
 17 18  1  0  0  0  0
 17 19  2  0  0  0  0
 12 19  1  0  0  0  0
 10 20  1  0  0  0  0
 20 21  2  0  0  0  0
 20 22  1  0  0  0  0
 23 22  1  1  0  0  0
 23 24  1  0  0  0  0
 24 25  1  0  0  0  0
 25 26  1  0  0  0  0
 26 27  2  0  0  0  0
 26 28  1  0  0  0  0
 28 29  1  0  0  0  0
 29 30  1  0  0  0  0
 30 31  1  1  0  0  0
 30 32  1  0  0  0  0
 32 33  1  0  0  0  0
 28 33  1  6  0  0  0
 33 34  1  0  0  0  0
 34 35  2  0  0  0  0
 34 36  1  0  0  0  0
 36 37  1  6  0  0  0
 36 38  1  0  0  0  0
 38 39  1  0  0  0  0
 39 40  2  0  0  0  0
 39 41  1  0  0  0  0
 41 42  1  0  0  0  0
 42 43  1  0  0  0  0
 43 44  1  0  0  0  0
 44 45  1  0  0  0  0
 45 46  1  0  0  0  0
 41 46  1  6  0  0  0
 46 47  1  0  0  0  0
 47 48  2  0  0  0  0
 47 49  1  0  0  0  0
 49 50  1  0  0  0  0
 50 51  1  0  0  0  0
 51 52  1  0  0  0  0
 52 53  1  0  0  0  0
 49 53  1  6  0  0  0
 53 54  1  0  0  0  0
 23 54  1  0  0  0  0
 54 55  2  0  0  0  0
M  END
> <Molecule Name>
CHEMBL3765521

> <IUPAC>
(2E)-N-[(1S)-2-(3,5-difluorophenyl)-1-{[(3S,9S,13S,15R,19S,22S)-15,19-dimethyl-2,8,12,18,21-pentaoxo-1,7,11,17,20-pentaazatetracyclo[20.4.0.0,.0,]hexacosan-9-yl]carbamoyl}ethyl]hept-2-en
amide

> <Collections>
Set2_NotListedAsBetaLactamResistant (mostly)

> <ChEMBL_Data_Neisseria_g: NUM_RO5_VIOLATIONS>
1

> <ChEMBL_Data_Neisseria_g: Qualifier_for_MIC_Ng>
=

> <ChEMBL_Data_Neisseria_g: ASSAY_CHEMBLID>
CHEMBL3766315

> <ChEMBL_Data_Neisseria_g: DESCRIPTION_of_Assay_Ng>
Antibacterial activity against chloramphenicol-resistant Neisseria gonorrhoeae N.279 incubated for 16 to 18 hrs by broth microdilution method

> <ChEMBL_Data_Neisseria_g: PUBMED_ID>
26818454

> <ChEMBL_Data_Neisseria_g: YEAR>
2016

> <ChEMBL_Data_Neisseria_g: JOURNAL>
J. Med. Chem.

> <ChEMBL_Data_Neisseria_g: VOLUME>
59

> <ChEMBL_Data_Neisseria_g: FIRST_PAGE>
624

> <ChEMBL_Data_Neisseria_g: MIC_vs_Neisseria_microg_per_mL>
1

> <ALogP>
2.272

> <Active>
1

> <Molecular_Weight>
769.878

> <ChEMBL_Data_Neisseria_g: STRAIN_of_Ng>
N.279

$$$$

Generated by Molecular Materials Informatics

 55 59  0  0  0  0  0  0  0  0999 V2000
   -0.1370   13.4171    0.0000 C   0  0  0  0  0  0  0  0  0  0  0  0
    0.1927   11.9538    0.0000 C   0  0  0  0  0  0  0  0  0  0  0  0
    1.6248   11.5076    0.0000 C   0  0  0  0  0  0  0  0  0  0  0  0
    1.9546   10.0444    0.0000 C   0  0  0  0  0  0  0  0  0  0  0  0
    3.3866    9.5984    0.0000 C   0  0  0  0  0  0  0  0  0  0  0  0
    3.7164    8.1351    0.0000 C   0  0  0  0  0  0  0  0  0  0  0  0
    5.1486    7.6889    0.0000 C   0  0  0  0  0  0  0  0  0  0  0  0
    6.2510    8.7062    0.0000 O   0  0  0  0  0  0  0  0  0  0  0  0
    5.4782    6.2257    0.0000 N   0  0  0  0  0  0  0  0  0  0  0  0
    6.9104    5.7795    0.0000 C   0  0  0  0  0  0  0  0  0  0  0  0
    8.0128    6.7968    0.0000 C   0  0  0  0  0  0  0  0  0  0  0  0
    9.4449    6.3506    0.0000 C   0  0  0  0  0  0  0  0  0  0  0  0
   10.5473    7.3679    0.0000 C   0  0  0  0  0  0  0  0  0  0  0  0
   11.9794    6.9219    0.0000 C   0  0  0  0  0  0  0  0  0  0  0  0
   13.0818    7.9389    0.0000 F   0  0  0  0  0  0  0  0  0  0  0  0
   12.3091    5.4584    0.0000 C   0  0  0  0  0  0  0  0  0  0  0  0
   11.2067    4.4413    0.0000 C   0  0  0  0  0  0  0  0  0  0  0  0
   11.5365    2.9781    0.0000 F   0  0  0  0  0  0  0  0  0  0  0  0
    9.7746    4.8873    0.0000 C   0  0  0  0  0  0  0  0  0  0  0  0
    7.2402    4.3162    0.0000 C   0  0  0  0  0  0  0  0  0  0  0  0
    5.7504    4.1413    0.0000 O   0  0  0  0  0  0  0  0  0  0  0  0
    8.6722    3.8703    0.0000 N   0  0  0  0  0  0  0  0  0  0  0  0
    9.0020    2.4068    0.0000 C   0  0  0  0  0  0  0  0  0  0  0  0
   10.4342    1.9608    0.0000 C   0  0  0  0  0  0  0  0  0  0  0  0
   11.9238    2.1357    0.0000 C   0  0  0  0  0  0  0  0  0  0  0  0
   10.7638    0.4976    0.0000 O   0  0  0  0  0  0  0  0  0  0  0  0
   12.1960    0.0514    0.0000 C   0  0  0  0  0  0  0  0  0  0  0  0
   13.2983    1.0686    0.0000 O   0  0  0  0  0  0  0  0  0  0  0  0
   12.5256   -1.4119    0.0000 C   0  0  0  0  0  0  0  0  0  0  0  0
   13.8338   -2.1460    0.0000 C   0  0  0  0  0  0  0  0  0  0  0  0
   13.5398   -3.6169    0.0000 C   0  0  0  0  0  0  0  0  0  0  0  0
   12.0500   -3.7918    0.0000 C   0  0  0  0  0  0  0  0  0  0  0  0
   11.4233   -2.4291    0.0000 N   0  0  0  0  0  0  0  0  0  0  0  0
    9.9911   -1.9830    0.0000 C   0  0  0  0  0  0  0  0  0  0  0  0
    9.6615   -0.5197    0.0000 O   0  0  0  0  0  0  0  0  0  0  0  0
    8.8887   -3.0002    0.0000 C   0  0  0  0  0  0  0  0  0  0  0  0
    9.2186   -4.4635    0.0000 C   0  0  0  0  0  0  0  0  0  0  0  0
    7.4568   -2.5540    0.0000 N   0  0  0  0  0  0  0  0  0  0  0  0
    6.3542   -3.5713    0.0000 C   0  0  0  0  0  0  0  0  0  0  0  0
    6.6840   -5.0346    0.0000 O   0  0  0  0  0  0  0  0  0  0  0  0
    4.9222   -3.1253    0.0000 C   0  0  0  0  0  0  0  0  0  0  0  0
    3.8199   -4.1424    0.0000 C   0  0  0  0  0  0  0  0  0  0  0  0
    2.3877   -3.6964    0.0000 C   0  0  0  0  0  0  0  0  0  0  0  0
    2.0579   -2.2330    0.0000 C   0  0  0  0  0  0  0  0  0  0  0  0
    3.1603   -1.2159    0.0000 C   0  0  0  0  0  0  0  0  0  0  0  0
    4.5924   -1.6619    0.0000 N   0  0  0  0  0  0  0  0  0  0  0  0
    5.6948   -0.6448    0.0000 C   0  0  0  0  0  0  0  0  0  0  0  0
    7.1269   -1.0908    0.0000 O   0  0  0  0  0  0  0  0  0  0  0  0
    5.3651    0.8186    0.0000 C   0  0  0  0  0  0  0  0  0  0  0  0
    4.0570    1.5526    0.0000 C   0  0  0  0  0  0  0  0  0  0  0  0
    4.3510    3.0235    0.0000 C   0  0  0  0  0  0  0  0  0  0  0  0
    5.8408    3.1986    0.0000 C   0  0  0  0  0  0  0  0  0  0  0  0
    6.4675    1.8357    0.0000 N   0  0  0  0  0  0  0  0  0  0  0  0
    7.8997    1.3897    0.0000 C   0  0  0  0  0  0  0  0  0  0  0  0
    8.2293   -0.0735    0.0000 O   0  0  0  0  0  0  0  0  0  0  0  0
  1  2  1  0  0  0  0
  2  3  1  0  0  0  0
  3  4  1  0  0  0  0
  4  5  1  0  0  0  0
  5  6  2  0  0  0  0
  6  7  1  0  0  0  0
  7  8  2  0  0  0  0
  7  9  1  0  0  0  0
 10  9  1  1  0  0  0
 10 11  1  0  0  0  0
 11 12  1  0  0  0  0
 12 13  2  0  0  0  0
 13 14  1  0  0  0  0
 14 15  1  0  0  0  0
 14 16  2  0  0  0  0
 16 17  1  0  0  0  0
 17 18  1  0  0  0  0
 17 19  2  0  0  0  0
 12 19  1  0  0  0  0
 10 20  1  0  0  0  0
 20 21  2  0  0  0  0
 20 22  1  0  0  0  0
 23 22  1  1  0  0  0
 23 24  1  0  0  0  0
 24 25  1  6  0  0  0
 24 26  1  0  0  0  0
 26 27  1  0  0  0  0
 27 28  2  0  0  0  0
 27 29  1  0  0  0  0
 29 30  1  0  0  0  0
 30 31  1  0  0  0  0
 31 32  1  0  0  0  0
 32 33  1  0  0  0  0
 29 33  1  6  0  0  0
 33 34  1  0  0  0  0
 34 35  2  0  0  0  0
 34 36  1  0  0  0  0
 36 37  1  6  0  0  0
 36 38  1  0  0  0  0
 38 39  1  0  0  0  0
 39 40  2  0  0  0  0
 39 41  1  0  0  0  0
 41 42  1  0  0  0  0
 42 43  1  0  0  0  0
 43 44  1  0  0  0  0
 44 45  1  0  0  0  0
 45 46  1  0  0  0  0
 41 46  1  6  0  0  0
 46 47  1  0  0  0  0
 47 48  2  0  0  0  0
 47 49  1  0  0  0  0
 49 50  1  0  0  0  0
 50 51  1  0  0  0  0
 51 52  1  0  0  0  0
 52 53  1  0  0  0  0
 49 53  1  6  0  0  0
 53 54  1  0  0  0  0
 23 54  1  0  0  0  0
 54 55  2  0  0  0  0
M  END
> <Molecule Name>
CHEMBL3765324

> <IUPAC>
(2E)-N-[(1S)-2-(3,5-difluorophenyl)-1-{[(3S,9S,10S,13S,19S,22S)-10,19-dimethyl-2,8,12,18,21-pentaoxo-11-oxa-1,7,17,20-tetraazatetracyclo[20.4.0.0,.0,]hexacosan-9-yl]carbamoyl}ethyl]hept-
2-enamide

> <Collections>
Set2_NotListedAsBetaLactamResistant (mostly)

> <ChEMBL_Data_Neisseria_g: NUM_RO5_VIOLATIONS>
1

> <ChEMBL_Data_Neisseria_g: Qualifier_for_MIC_Ng>
=

> <ChEMBL_Data_Neisseria_g: ASSAY_CHEMBLID>
CHEMBL3766315

> <ChEMBL_Data_Neisseria_g: DESCRIPTION_of_Assay_Ng>
Antibacterial activity against chloramphenicol-resistant Neisseria gonorrhoeae N.279 incubated for 16 to 18 hrs by broth microdilution method

> <ChEMBL_Data_Neisseria_g: PUBMED_ID>
26818454

> <ChEMBL_Data_Neisseria_g: YEAR>
2016

> <ChEMBL_Data_Neisseria_g: JOURNAL>
J. Med. Chem.

> <ChEMBL_Data_Neisseria_g: VOLUME>
59

> <ChEMBL_Data_Neisseria_g: FIRST_PAGE>
624

> <ChEMBL_Data_Neisseria_g: MIC_vs_Neisseria_microg_per_mL>
0.125

> <ALogP>
2.978

> <Active>
1

> <Molecular_Weight>
770.862

> <ChEMBL_Data_Neisseria_g: STRAIN_of_Ng>
N.279

$$$$

Generated by Molecular Materials Informatics

 58 63  0  0  0  0  0  0  0  0999 V2000
   13.7726   10.8487    0.0000 C   0  0  0  0  0  0  0  0  0  0  0  0
   14.1024    9.3852    0.0000 C   0  0  0  0  0  0  0  0  0  0  0  0
   15.5346    8.9392    0.0000 C   0  0  0  0  0  0  0  0  0  0  0  0
   15.8642    7.4760    0.0000 C   0  0  0  0  0  0  0  0  0  0  0  0
   14.7619    6.4587    0.0000 C   0  0  0  0  0  0  0  0  0  0  0  0
   13.3297    6.9049    0.0000 C   0  0  0  0  0  0  0  0  0  0  0  0
   12.2273    5.8876    0.0000 C   0  0  0  0  0  0  0  0  0  0  0  0
   13.3542    4.8976    0.0000 O   0  0  0  0  0  0  0  0  0  0  0  0
   10.7952    6.3336    0.0000 N   0  0  0  0  0  0  0  0  0  0  0  0
    9.6928    5.3165    0.0000 C   0  0  0  0  0  0  0  0  0  0  0  0
   10.0226    3.8533    0.0000 C   0  0  0  0  0  0  0  0  0  0  0  0
   11.4546    3.4071    0.0000 C   0  0  0  0  0  0  0  0  0  0  0  0
   11.7844    1.9438    0.0000 C   0  0  0  0  0  0  0  0  0  0  0  0
   13.2166    1.4977    0.0000 C   0  0  0  0  0  0  0  0  0  0  0  0
   14.3190    2.5149    0.0000 C   0  0  0  0  0  0  0  0  0  0  0  0
   15.7511    2.0687    0.0000 C   0  0  0  0  0  0  0  0  0  0  0  0
   16.8535    3.0860    0.0000 C   0  0  0  0  0  0  0  0  0  0  0  0
   16.5237    4.5493    0.0000 C   0  0  0  0  0  0  0  0  0  0  0  0
   15.0917    4.9954    0.0000 C   0  0  0  0  0  0  0  0  0  0  0  0
   13.9891    3.9782    0.0000 C   0  0  0  0  0  0  0  0  0  0  0  0
   12.5572    4.4244    0.0000 C   0  0  0  0  0  0  0  0  0  0  0  0
    8.2607    5.7625    0.0000 C   0  0  0  0  0  0  0  0  0  0  0  0
    7.9310    7.2258    0.0000 O   0  0  0  0  0  0  0  0  0  0  0  0
    7.1583    4.7454    0.0000 N   0  0  0  0  0  0  0  0  0  0  0  0
    7.4881    3.2820    0.0000 C   0  0  0  0  0  0  0  0  0  0  0  0
    8.9203    2.8360    0.0000 C   0  0  0  0  0  0  0  0  0  0  0  0
    9.2499    1.3727    0.0000 O   0  0  0  0  0  0  0  0  0  0  0  0
   10.6821    0.9266    0.0000 C   0  0  0  0  0  0  0  0  0  0  0  0
   12.1717    1.1017    0.0000 O   0  0  0  0  0  0  0  0  0  0  0  0
   11.0117   -0.5367    0.0000 C   0  0  0  0  0  0  0  0  0  0  0  0
   12.3199   -1.2709    0.0000 C   0  0  0  0  0  0  0  0  0  0  0  0
   12.0259   -2.7418    0.0000 C   0  0  0  0  0  0  0  0  0  0  0  0
   13.0432   -3.8441    0.0000 C   0  0  0  0  0  0  0  0  0  0  0  0
   10.5361   -2.9167    0.0000 C   0  0  0  0  0  0  0  0  0  0  0  0
    9.9094   -1.5539    0.0000 N   0  0  0  0  0  0  0  0  0  0  0  0
    8.4772   -1.1078    0.0000 C   0  0  0  0  0  0  0  0  0  0  0  0
    8.1476    0.3555    0.0000 O   0  0  0  0  0  0  0  0  0  0  0  0
    7.3749   -2.1250    0.0000 C   0  0  0  0  0  0  0  0  0  0  0  0
    7.7047   -3.5883    0.0000 C   0  0  0  0  0  0  0  0  0  0  0  0
    6.6023   -4.6056    0.0000 C   0  0  0  0  0  0  0  0  0  0  0  0
    5.9429   -1.6789    0.0000 N   0  0  0  0  0  0  0  0  0  0  0  0
    4.8403   -2.6961    0.0000 C   0  0  0  0  0  0  0  0  0  0  0  0
    5.1702   -4.1594    0.0000 O   0  0  0  0  0  0  0  0  0  0  0  0
    3.4084   -2.2501    0.0000 C   0  0  0  0  0  0  0  0  0  0  0  0
    2.3060   -3.2672    0.0000 C   0  0  0  0  0  0  0  0  0  0  0  0
    0.8738   -2.8212    0.0000 C   0  0  0  0  0  0  0  0  0  0  0  0
    0.5440   -1.3578    0.0000 C   0  0  0  0  0  0  0  0  0  0  0  0
    1.6464   -0.3407    0.0000 C   0  0  0  0  0  0  0  0  0  0  0  0
    3.0785   -0.7867    0.0000 N   0  0  0  0  0  0  0  0  0  0  0  0
    4.1809    0.2304    0.0000 C   0  0  0  0  0  0  0  0  0  0  0  0
    5.6131   -0.2156    0.0000 O   0  0  0  0  0  0  0  0  0  0  0  0
    3.8513    1.6938    0.0000 C   0  0  0  0  0  0  0  0  0  0  0  0
    2.5431    2.4278    0.0000 C   0  0  0  0  0  0  0  0  0  0  0  0
    2.8371    3.8987    0.0000 C   0  0  0  0  0  0  0  0  0  0  0  0
    4.3269    4.0738    0.0000 C   0  0  0  0  0  0  0  0  0  0  0  0
    4.9536    2.7109    0.0000 N   0  0  0  0  0  0  0  0  0  0  0  0
    6.3858    2.2649    0.0000 C   0  0  0  0  0  0  0  0  0  0  0  0
    6.7154    0.8017    0.0000 O   0  0  0  0  0  0  0  0  0  0  0  0
  1  2  1  0  0  0  0
  2  3  1  0  0  0  0
  3  4  1  0  0  0  0
  4  5  1  0  0  0  0
  5  6  2  0  0  0  0
  6  7  1  0  0  0  0
  7  8  2  0  0  0  0
  7  9  1  0  0  0  0
 10  9  1  1  0  0  0
 10 11  1  0  0  0  0
 11 12  1  0  0  0  0
 12 13  2  0  0  0  0
 13 14  1  0  0  0  0
 14 15  2  0  0  0  0
 15 16  1  0  0  0  0
 16 17  2  0  0  0  0
 17 18  1  0  0  0  0
 18 19  2  0  0  0  0
 19 20  1  0  0  0  0
 15 20  1  0  0  0  0
 20 21  2  0  0  0  0
 12 21  1  0  0  0  0
 10 22  1  0  0  0  0
 22 23  2  0  0  0  0
 22 24  1  0  0  0  0
 25 24  1  1  0  0  0
 25 26  1  0  0  0  0
 26 27  1  0  0  0  0
 27 28  1  0  0  0  0
 28 29  2  0  0  0  0
 28 30  1  0  0  0  0
 30 31  1  0  0  0  0
 31 32  1  0  0  0  0
 32 33  1  1  0  0  0
 32 34  1  0  0  0  0
 34 35  1  0  0  0  0
 30 35  1  6  0  0  0
 35 36  1  0  0  0  0
 36 37  2  0  0  0  0
 36 38  1  0  0  0  0
 38 39  1  6  0  0  0
 39 40  1  0  0  0  0
 38 41  1  0  0  0  0
 41 42  1  0  0  0  0
 42 43  2  0  0  0  0
 42 44  1  0  0  0  0
 44 45  1  0  0  0  0
 45 46  1  0  0  0  0
 46 47  1  0  0  0  0
 47 48  1  0  0  0  0
 48 49  1  0  0  0  0
 44 49  1  6  0  0  0
 49 50  1  0  0  0  0
 50 51  2  0  0  0  0
 50 52  1  0  0  0  0
 52 53  1  0  0  0  0
 53 54  1  0  0  0  0
 54 55  1  0  0  0  0
 55 56  1  0  0  0  0
 52 56  1  6  0  0  0
 56 57  1  0  0  0  0
 25 57  1  0  0  0  0
 57 58  2  0  0  0  0
M  END
> <Molecule Name>
CHEMBL3765250

> <IUPAC>
(2E)-N-[(1S)-1-{[(3S,9S,13S,15R,19S,22S)-19-ethyl-15-methyl-2,8,12,18,21-pentaoxo-11-oxa-1,7,17,20-tetraazatetracyclo[20.4.0.0,.0,]hexacosan-9-yl]carbamoyl}-2-(naphthalen-2-yl)ethyl]hept
-2-enamide

> <Collections>
Set2_NotListedAsBetaLactamResistant (mostly)

> <ChEMBL_Data_Neisseria_g: NUM_RO5_VIOLATIONS>
1

> <ChEMBL_Data_Neisseria_g: Qualifier_for_MIC_Ng>
>

> <ChEMBL_Data_Neisseria_g: ASSAY_CHEMBLID>
CHEMBL3766315

> <ChEMBL_Data_Neisseria_g: DESCRIPTION_of_Assay_Ng>
Antibacterial activity against chloramphenicol-resistant Neisseria gonorrhoeae N.279 incubated for 16 to 18 hrs by broth microdilution method

> <ChEMBL_Data_Neisseria_g: PUBMED_ID>
26818454

> <ChEMBL_Data_Neisseria_g: YEAR>
2016

> <ChEMBL_Data_Neisseria_g: JOURNAL>
J. Med. Chem.

> <ChEMBL_Data_Neisseria_g: VOLUME>
59

> <ChEMBL_Data_Neisseria_g: FIRST_PAGE>
624

> <ChEMBL_Data_Neisseria_g: MIC_vs_Neisseria_microg_per_mL>
128

> <ALogP>
3.941

> <Active>
0

> <Molecular_Weight>
798.967

> <ChEMBL_Data_Neisseria_g: STRAIN_of_Ng>
N.279

$$$$

Generated by Molecular Materials Informatics

 57 61  0  0  0  0  0  0  0  0999 V2000
    6.8332   15.0461    0.0000 C   0  0  0  0  0  0  0  0  0  0  0  0
    7.1629   13.5827    0.0000 C   0  0  0  0  0  0  0  0  0  0  0  0
    8.5950   13.1367    0.0000 C   0  0  0  0  0  0  0  0  0  0  0  0
    8.9247   11.6734    0.0000 C   0  0  0  0  0  0  0  0  0  0  0  0
    7.8223   10.6561    0.0000 C   0  0  0  0  0  0  0  0  0  0  0  0
    8.1521    9.1929    0.0000 C   0  0  0  0  0  0  0  0  0  0  0  0
    7.0498    8.1756    0.0000 C   0  0  0  0  0  0  0  0  0  0  0  0
    6.1532    9.3783    0.0000 O   0  0  0  0  0  0  0  0  0  0  0  0
    7.3794    6.7124    0.0000 N   0  0  0  0  0  0  0  0  0  0  0  0
    6.2771    5.6951    0.0000 C   0  0  0  0  0  0  0  0  0  0  0  0
    4.8449    6.1413    0.0000 C   0  0  0  0  0  0  0  0  0  0  0  0
    4.5153    7.6045    0.0000 C   0  0  0  0  0  0  0  0  0  0  0  0
    3.0831    8.0507    0.0000 C   0  0  0  0  0  0  0  0  0  0  0  0
    2.7533    9.5140    0.0000 C   0  0  0  0  0  0  0  0  0  0  0  0
    1.3213    9.9600    0.0000 F   0  0  0  0  0  0  0  0  0  0  0  0
    3.8558   10.5311    0.0000 C   0  0  0  0  0  0  0  0  0  0  0  0
    5.2878   10.0851    0.0000 C   0  0  0  0  0  0  0  0  0  0  0  0
    6.3903   11.1023    0.0000 F   0  0  0  0  0  0  0  0  0  0  0  0
    5.6176    8.6218    0.0000 C   0  0  0  0  0  0  0  0  0  0  0  0
    6.6069    4.2319    0.0000 C   0  0  0  0  0  0  0  0  0  0  0  0
    5.1171    4.0569    0.0000 O   0  0  0  0  0  0  0  0  0  0  0  0
    8.0389    3.7859    0.0000 N   0  0  0  0  0  0  0  0  0  0  0  0
    8.3687    2.3224    0.0000 C   0  0  0  0  0  0  0  0  0  0  0  0
    9.8008    1.8764    0.0000 C   0  0  0  0  0  0  0  0  0  0  0  0
   10.1305    0.4132    0.0000 O   0  0  0  0  0  0  0  0  0  0  0  0
   11.5626   -0.0330    0.0000 C   0  0  0  0  0  0  0  0  0  0  0  0
   12.6650    0.9843    0.0000 O   0  0  0  0  0  0  0  0  0  0  0  0
   11.8923   -1.4963    0.0000 C   0  0  0  0  0  0  0  0  0  0  0  0
   13.2004   -2.2304    0.0000 C   0  0  0  0  0  0  0  0  0  0  0  0
   12.9064   -3.7013    0.0000 C   0  0  0  0  0  0  0  0  0  0  0  0
   13.9237   -4.8037    0.0000 C   0  0  0  0  0  0  0  0  0  0  0  0
   11.4166   -3.8762    0.0000 C   0  0  0  0  0  0  0  0  0  0  0  0
   10.7899   -2.5135    0.0000 N   0  0  0  0  0  0  0  0  0  0  0  0
    9.3578   -2.0674    0.0000 C   0  0  0  0  0  0  0  0  0  0  0  0
    9.0281   -0.6041    0.0000 O   0  0  0  0  0  0  0  0  0  0  0  0
    8.2554   -3.0846    0.0000 C   0  0  0  0  0  0  0  0  0  0  0  0
    8.5852   -4.5479    0.0000 C   0  0  0  0  0  0  0  0  0  0  0  0
   10.0174   -4.9940    0.0000 C   0  0  0  0  0  0  0  0  0  0  0  0
   10.3470   -6.4573    0.0000 C   0  0  0  0  0  0  0  0  0  0  0  0
    6.8234   -2.6384    0.0000 N   0  0  0  0  0  0  0  0  0  0  0  0
    5.7209   -3.6557    0.0000 C   0  0  0  0  0  0  0  0  0  0  0  0
    6.0507   -5.1190    0.0000 O   0  0  0  0  0  0  0  0  0  0  0  0
    4.2889   -3.2097    0.0000 C   0  0  0  0  0  0  0  0  0  0  0  0
    3.1865   -4.2268    0.0000 C   0  0  0  0  0  0  0  0  0  0  0  0
    1.7544   -3.7808    0.0000 C   0  0  0  0  0  0  0  0  0  0  0  0
    1.4246   -2.3173    0.0000 C   0  0  0  0  0  0  0  0  0  0  0  0
    2.5269   -1.3003    0.0000 C   0  0  0  0  0  0  0  0  0  0  0  0
    3.9591   -1.7463    0.0000 N   0  0  0  0  0  0  0  0  0  0  0  0
    5.0614   -0.7292    0.0000 C   0  0  0  0  0  0  0  0  0  0  0  0
    6.4936   -1.1752    0.0000 O   0  0  0  0  0  0  0  0  0  0  0  0
    4.7318    0.7343    0.0000 C   0  0  0  0  0  0  0  0  0  0  0  0
    3.4236    1.4682    0.0000 C   0  0  0  0  0  0  0  0  0  0  0  0
    3.7176    2.9391    0.0000 C   0  0  0  0  0  0  0  0  0  0  0  0
    5.2074    3.1142    0.0000 C   0  0  0  0  0  0  0  0  0  0  0  0
    5.8342    1.7513    0.0000 N   0  0  0  0  0  0  0  0  0  0  0  0
    7.2663    1.3053    0.0000 C   0  0  0  0  0  0  0  0  0  0  0  0
    7.5960   -0.1579    0.0000 O   0  0  0  0  0  0  0  0  0  0  0  0
  1  2  1  0  0  0  0
  2  3  1  0  0  0  0
  3  4  1  0  0  0  0
  4  5  1  0  0  0  0
  5  6  2  0  0  0  0
  6  7  1  0  0  0  0
  7  8  2  0  0  0  0
  7  9  1  0  0  0  0
 10  9  1  6  0  0  0
 10 11  1  0  0  0  0
 11 12  1  0  0  0  0
 12 13  2  0  0  0  0
 13 14  1  0  0  0  0
 14 15  1  0  0  0  0
 14 16  2  0  0  0  0
 16 17  1  0  0  0  0
 17 18  1  0  0  0  0
 17 19  2  0  0  0  0
 12 19  1  0  0  0  0
 10 20  1  0  0  0  0
 20 21  2  0  0  0  0
 20 22  1  0  0  0  0
 23 22  1  1  0  0  0
 23 24  1  0  0  0  0
 24 25  1  0  0  0  0
 25 26  1  0  0  0  0
 26 27  2  0  0  0  0
 26 28  1  0  0  0  0
 28 29  1  0  0  0  0
 29 30  1  0  0  0  0
 30 31  1  1  0  0  0
 30 32  1  0  0  0  0
 32 33  1  0  0  0  0
 28 33  1  6  0  0  0
 33 34  1  0  0  0  0
 34 35  2  0  0  0  0
 34 36  1  0  0  0  0
 36 37  1  6  0  0  0
 37 38  1  0  0  0  0
 38 39  1  0  0  0  0
 36 40  1  0  0  0  0
 40 41  1  0  0  0  0
 41 42  2  0  0  0  0
 41 43  1  0  0  0  0
 43 44  1  0  0  0  0
 44 45  1  0  0  0  0
 45 46  1  0  0  0  0
 46 47  1  0  0  0  0
 47 48  1  0  0  0  0
 43 48  1  6  0  0  0
 48 49  1  0  0  0  0
 49 50  2  0  0  0  0
 49 51  1  0  0  0  0
 51 52  1  0  0  0  0
 52 53  1  0  0  0  0
 53 54  1  0  0  0  0
 54 55  1  0  0  0  0
 51 55  1  6  0  0  0
 55 56  1  0  0  0  0
 23 56  1  0  0  0  0
 56 57  2  0  0  0  0
M  END
> <Molecule Name>
CHEMBL3765183

> <IUPAC>
(2E)-N-[(1S)-2-(3,5-difluorophenyl)-1-{[(3S,9S,13S,15R,19S,22S)-15-methyl-2,8,12,18,21-pentaoxo-19-propyl-11-oxa-1,7,17,20-tetraazatetracyclo[20.4.0.0,.0,]hexacosan-9-yl]carbamoyl}ethyl]
hept-2-enamide

> <Collections>
Set2_NotListedAsBetaLactamResistant (mostly)

> <ChEMBL_Data_Neisseria_g: NUM_RO5_VIOLATIONS>
1

> <ChEMBL_Data_Neisseria_g: Qualifier_for_MIC_Ng>
=

> <ChEMBL_Data_Neisseria_g: ASSAY_CHEMBLID>
CHEMBL3766315

> <ChEMBL_Data_Neisseria_g: DESCRIPTION_of_Assay_Ng>
Antibacterial activity against chloramphenicol-resistant Neisseria gonorrhoeae N.279 incubated for 16 to 18 hrs by broth microdilution method

> <ChEMBL_Data_Neisseria_g: PUBMED_ID>
26818454

> <ChEMBL_Data_Neisseria_g: YEAR>
2016

> <ChEMBL_Data_Neisseria_g: JOURNAL>
J. Med. Chem.

> <ChEMBL_Data_Neisseria_g: VOLUME>
59

> <ChEMBL_Data_Neisseria_g: FIRST_PAGE>
624

> <ChEMBL_Data_Neisseria_g: MIC_vs_Neisseria_microg_per_mL>
0.125

> <ALogP>
3.899

> <Active>
1

> <Molecular_Weight>
798.916

> <ChEMBL_Data_Neisseria_g: STRAIN_of_Ng>
N.279

$$$$

Generated by Molecular Materials Informatics

 57 61  0  0  0  0  0  0  0  0999 V2000
    9.5182   15.1876    0.0000 C   0  0  0  0  0  0  0  0  0  0  0  0
    9.8480   13.7243    0.0000 C   0  0  0  0  0  0  0  0  0  0  0  0
   11.2801   13.2781    0.0000 C   0  0  0  0  0  0  0  0  0  0  0  0
   11.6098   11.8149    0.0000 C   0  0  0  0  0  0  0  0  0  0  0  0
   10.5074   10.7976    0.0000 C   0  0  0  0  0  0  0  0  0  0  0  0
   10.8372    9.3344    0.0000 C   0  0  0  0  0  0  0  0  0  0  0  0
    9.7349    8.3171    0.0000 C   0  0  0  0  0  0  0  0  0  0  0  0
    8.8383    9.5198    0.0000 O   0  0  0  0  0  0  0  0  0  0  0  0
   10.0645    6.8538    0.0000 N   0  0  0  0  0  0  0  0  0  0  0  0
    8.9622    5.8366    0.0000 C   0  0  0  0  0  0  0  0  0  0  0  0
    7.5300    6.2828    0.0000 C   0  0  0  0  0  0  0  0  0  0  0  0
    7.2004    7.7460    0.0000 C   0  0  0  0  0  0  0  0  0  0  0  0
    5.7682    8.1922    0.0000 C   0  0  0  0  0  0  0  0  0  0  0  0
    5.4384    9.6554    0.0000 C   0  0  0  0  0  0  0  0  0  0  0  0
    4.0064   10.1014    0.0000 F   0  0  0  0  0  0  0  0  0  0  0  0
    6.5409   10.6727    0.0000 C   0  0  0  0  0  0  0  0  0  0  0  0
    7.9729   10.2265    0.0000 C   0  0  0  0  0  0  0  0  0  0  0  0
    9.0753   11.2438    0.0000 F   0  0  0  0  0  0  0  0  0  0  0  0
    8.3027    8.7633    0.0000 C   0  0  0  0  0  0  0  0  0  0  0  0
    9.2918    4.3733    0.0000 C   0  0  0  0  0  0  0  0  0  0  0  0
   10.7240    3.9273    0.0000 O   0  0  0  0  0  0  0  0  0  0  0  0
    8.1894    3.3562    0.0000 N   0  0  0  0  0  0  0  0  0  0  0  0
    8.5193    1.8928    0.0000 C   0  0  0  0  0  0  0  0  0  0  0  0
    9.9514    1.4468    0.0000 C   0  0  0  0  0  0  0  0  0  0  0  0
   11.0538    2.4641    0.0000 C   0  0  0  0  0  0  0  0  0  0  0  0
   10.2811   -0.0164    0.0000 O   0  0  0  0  0  0  0  0  0  0  0  0
   11.7132   -0.4626    0.0000 C   0  0  0  0  0  0  0  0  0  0  0  0
   12.8156    0.5546    0.0000 O   0  0  0  0  0  0  0  0  0  0  0  0
   12.0429   -1.9259    0.0000 C   0  0  0  0  0  0  0  0  0  0  0  0
   13.3510   -2.6601    0.0000 C   0  0  0  0  0  0  0  0  0  0  0  0
   13.0570   -4.1310    0.0000 C   0  0  0  0  0  0  0  0  0  0  0  0
   14.0743   -5.2333    0.0000 C   0  0  0  0  0  0  0  0  0  0  0  0
   11.5672   -4.3059    0.0000 C   0  0  0  0  0  0  0  0  0  0  0  0
   10.9405   -2.9431    0.0000 N   0  0  0  0  0  0  0  0  0  0  0  0
    9.5083   -2.4970    0.0000 C   0  0  0  0  0  0  0  0  0  0  0  0
    9.1787   -1.0337    0.0000 O   0  0  0  0  0  0  0  0  0  0  0  0
    8.4060   -3.5142    0.0000 C   0  0  0  0  0  0  0  0  0  0  0  0
    8.7358   -4.9775    0.0000 C   0  0  0  0  0  0  0  0  0  0  0  0
    6.9740   -3.0681    0.0000 N   0  0  0  0  0  0  0  0  0  0  0  0
    5.8715   -4.0853    0.0000 C   0  0  0  0  0  0  0  0  0  0  0  0
    6.2013   -5.5486    0.0000 O   0  0  0  0  0  0  0  0  0  0  0  0
    4.4395   -3.6393    0.0000 C   0  0  0  0  0  0  0  0  0  0  0  0
    3.3371   -4.6564    0.0000 C   0  0  0  0  0  0  0  0  0  0  0  0
    1.9050   -4.2104    0.0000 C   0  0  0  0  0  0  0  0  0  0  0  0
    0.8026   -5.2275    0.0000 C   0  0  0  0  0  0  0  0  0  0  0  0
    1.5751   -2.7470    0.0000 C   0  0  0  0  0  0  0  0  0  0  0  0
    2.6775   -1.7299    0.0000 C   0  0  0  0  0  0  0  0  0  0  0  0
    4.1097   -2.1759    0.0000 N   0  0  0  0  0  0  0  0  0  0  0  0
    5.2120   -1.1588    0.0000 C   0  0  0  0  0  0  0  0  0  0  0  0
    6.6442   -1.6048    0.0000 O   0  0  0  0  0  0  0  0  0  0  0  0
    4.8824    0.3046    0.0000 C   0  0  0  0  0  0  0  0  0  0  0  0
    3.5742    1.0386    0.0000 C   0  0  0  0  0  0  0  0  0  0  0  0
    3.8682    2.5095    0.0000 C   0  0  0  0  0  0  0  0  0  0  0  0
    5.3580    2.6846    0.0000 C   0  0  0  0  0  0  0  0  0  0  0  0
    5.9847    1.3217    0.0000 N   0  0  0  0  0  0  0  0  0  0  0  0
    7.4169    0.8757    0.0000 C   0  0  0  0  0  0  0  0  0  0  0  0
    7.7465   -0.5875    0.0000 O   0  0  0  0  0  0  0  0  0  0  0  0
  1  2  1  0  0  0  0
  2  3  1  0  0  0  0
  3  4  1  0  0  0  0
  4  5  1  0  0  0  0
  5  6  2  0  0  0  0
  6  7  1  0  0  0  0
  7  8  2  0  0  0  0
  7  9  1  0  0  0  0
 10  9  1  6  0  0  0
 10 11  1  0  0  0  0
 11 12  1  0  0  0  0
 12 13  2  0  0  0  0
 13 14  1  0  0  0  0
 14 15  1  0  0  0  0
 14 16  2  0  0  0  0
 16 17  1  0  0  0  0
 17 18  1  0  0  0  0
 17 19  2  0  0  0  0
 12 19  1  0  0  0  0
 10 20  1  0  0  0  0
 20 21  2  0  0  0  0
 20 22  1  0  0  0  0
 23 22  1  1  0  0  0
 23 24  1  0  0  0  0
 24 25  1  6  0  0  0
 24 26  1  0  0  0  0
 26 27  1  0  0  0  0
 27 28  2  0  0  0  0
 27 29  1  0  0  0  0
 29 30  1  0  0  0  0
 30 31  1  0  0  0  0
 31 32  1  1  0  0  0
 31 33  1  0  0  0  0
 33 34  1  0  0  0  0
 29 34  1  6  0  0  0
 34 35  1  0  0  0  0
 35 36  2  0  0  0  0
 35 37  1  0  0  0  0
 37 38  1  6  0  0  0
 37 39  1  0  0  0  0
 39 40  1  0  0  0  0
 40 41  2  0  0  0  0
 40 42  1  0  0  0  0
 42 43  1  0  0  0  0
 43 44  1  0  0  0  0
 44 45  1  1  0  0  0
 44 46  1  0  0  0  0
 46 47  1  0  0  0  0
 47 48  1  0  0  0  0
 42 48  1  6  0  0  0
 48 49  1  0  0  0  0
 49 50  2  0  0  0  0
 49 51  1  0  0  0  0
 51 52  1  0  0  0  0
 52 53  1  0  0  0  0
 53 54  1  0  0  0  0
 54 55  1  0  0  0  0
 51 55  1  6  0  0  0
 55 56  1  0  0  0  0
 23 56  1  0  0  0  0
 56 57  2  0  0  0  0
M  END
> <Molecule Name>
CHEMBL3765153

> <IUPAC>
(2E)-N-[(1S)-2-(3,5-difluorophenyl)-1-{[(3S,9S,10S,13S,15R,19S,22S,24S)-10,15,19,24-tetramethyl-2,8,12,18,21-pentaoxo-11-oxa-1,7,17,20-tetraazatetracyclo[20.4.0.0,.0,]hexacosan-9-yl]carb
amoyl}ethyl]hept-2-enamide

> <Collections>
Set2_NotListedAsBetaLactamResistant (mostly)

> <ChEMBL_Data_Neisseria_g: NUM_RO5_VIOLATIONS>
1

> <ChEMBL_Data_Neisseria_g: Qualifier_for_MIC_Ng>
=

> <ChEMBL_Data_Neisseria_g: ASSAY_CHEMBLID>
CHEMBL3766315

> <ChEMBL_Data_Neisseria_g: DESCRIPTION_of_Assay_Ng>
Antibacterial activity against chloramphenicol-resistant Neisseria gonorrhoeae N.279 incubated for 16 to 18 hrs by broth microdilution method

> <ChEMBL_Data_Neisseria_g: PUBMED_ID>
26818454

> <ChEMBL_Data_Neisseria_g: YEAR>
2016

> <ChEMBL_Data_Neisseria_g: JOURNAL>
J. Med. Chem.

> <ChEMBL_Data_Neisseria_g: VOLUME>
59

> <ChEMBL_Data_Neisseria_g: FIRST_PAGE>
624

> <ChEMBL_Data_Neisseria_g: MIC_vs_Neisseria_microg_per_mL>
0.125

> <ALogP>
3.549

> <Active>
1

> <Molecular_Weight>
798.916

> <ChEMBL_Data_Neisseria_g: STRAIN_of_Ng>
N.279

$$$$

Generated by Molecular Materials Informatics

 54 58  0  0  0  0  0  0  0  0999 V2000
   19.1610    8.2312    0.0000 C   0  0  0  0  0  0  0  0  0  0  0  0
   17.7288    8.6774    0.0000 C   0  0  0  0  0  0  0  0  0  0  0  0
   16.6265    7.6601    0.0000 C   0  0  0  0  0  0  0  0  0  0  0  0
   15.1943    8.1063    0.0000 C   0  0  0  0  0  0  0  0  0  0  0  0
   14.0920    7.0890    0.0000 C   0  0  0  0  0  0  0  0  0  0  0  0
   12.6598    7.5352    0.0000 C   0  0  0  0  0  0  0  0  0  0  0  0
   11.5574    6.5180    0.0000 C   0  0  0  0  0  0  0  0  0  0  0  0
   12.6843    5.5280    0.0000 O   0  0  0  0  0  0  0  0  0  0  0  0
   10.1253    6.9640    0.0000 N   0  0  0  0  0  0  0  0  0  0  0  0
    9.0229    5.9469    0.0000 C   0  0  0  0  0  0  0  0  0  0  0  0
    9.3527    4.4836    0.0000 C   0  0  0  0  0  0  0  0  0  0  0  0
   10.7847    4.0374    0.0000 C   0  0  0  0  0  0  0  0  0  0  0  0
   11.8873    5.0547    0.0000 C   0  0  0  0  0  0  0  0  0  0  0  0
   13.3192    4.6085    0.0000 C   0  0  0  0  0  0  0  0  0  0  0  0
   13.6491    3.1453    0.0000 C   0  0  0  0  0  0  0  0  0  0  0  0
   12.5467    2.1280    0.0000 C   0  0  0  0  0  0  0  0  0  0  0  0
   11.1145    2.5742    0.0000 C   0  0  0  0  0  0  0  0  0  0  0  0
    7.5908    6.3929    0.0000 C   0  0  0  0  0  0  0  0  0  0  0  0
    7.2611    7.8561    0.0000 O   0  0  0  0  0  0  0  0  0  0  0  0
    6.4884    5.3758    0.0000 N   0  0  0  0  0  0  0  0  0  0  0  0
    6.8182    3.9124    0.0000 C   0  0  0  0  0  0  0  0  0  0  0  0
    8.2504    3.4664    0.0000 C   0  0  0  0  0  0  0  0  0  0  0  0
    8.5800    2.0031    0.0000 O   0  0  0  0  0  0  0  0  0  0  0  0
   10.0122    1.5569    0.0000 C   0  0  0  0  0  0  0  0  0  0  0  0
   11.5018    1.7320    0.0000 O   0  0  0  0  0  0  0  0  0  0  0  0
   10.3418    0.0937    0.0000 C   0  0  0  0  0  0  0  0  0  0  0  0
   11.6500   -0.6405    0.0000 C   0  0  0  0  0  0  0  0  0  0  0  0
   11.3560   -2.1114    0.0000 C   0  0  0  0  0  0  0  0  0  0  0  0
   12.3732   -3.2137    0.0000 C   0  0  0  0  0  0  0  0  0  0  0  0
    9.8662   -2.2863    0.0000 C   0  0  0  0  0  0  0  0  0  0  0  0
    9.2395   -0.9236    0.0000 N   0  0  0  0  0  0  0  0  0  0  0  0
    7.8073   -0.4774    0.0000 C   0  0  0  0  0  0  0  0  0  0  0  0
    7.4777    0.9858    0.0000 O   0  0  0  0  0  0  0  0  0  0  0  0
    6.7049   -1.4947    0.0000 C   0  0  0  0  0  0  0  0  0  0  0  0
    7.0348   -2.9579    0.0000 C   0  0  0  0  0  0  0  0  0  0  0  0
    5.9324   -3.9752    0.0000 C   0  0  0  0  0  0  0  0  0  0  0  0
    5.2730   -1.0485    0.0000 N   0  0  0  0  0  0  0  0  0  0  0  0
    4.1704   -2.0658    0.0000 C   0  0  0  0  0  0  0  0  0  0  0  0
    4.5002   -3.5290    0.0000 O   0  0  0  0  0  0  0  0  0  0  0  0
    2.7384   -1.6198    0.0000 C   0  0  0  0  0  0  0  0  0  0  0  0
    1.6361   -2.6368    0.0000 C   0  0  0  0  0  0  0  0  0  0  0  0
    0.2039   -2.1909    0.0000 C   0  0  0  0  0  0  0  0  0  0  0  0
   -0.1259   -0.7274    0.0000 C   0  0  0  0  0  0  0  0  0  0  0  0
    0.9765    0.2897    0.0000 C   0  0  0  0  0  0  0  0  0  0  0  0
    2.4086   -0.1563    0.0000 N   0  0  0  0  0  0  0  0  0  0  0  0
    3.5110    0.8608    0.0000 C   0  0  0  0  0  0  0  0  0  0  0  0
    4.9431    0.4148    0.0000 O   0  0  0  0  0  0  0  0  0  0  0  0
    3.1813    2.3242    0.0000 C   0  0  0  0  0  0  0  0  0  0  0  0
    1.8732    3.0582    0.0000 C   0  0  0  0  0  0  0  0  0  0  0  0
    2.1672    4.5291    0.0000 C   0  0  0  0  0  0  0  0  0  0  0  0
    3.6570    4.7042    0.0000 C   0  0  0  0  0  0  0  0  0  0  0  0
    4.2837    3.3413    0.0000 N   0  0  0  0  0  0  0  0  0  0  0  0
    5.7159    2.8953    0.0000 C   0  0  0  0  0  0  0  0  0  0  0  0
    6.0455    1.4320    0.0000 O   0  0  0  0  0  0  0  0  0  0  0  0
  1  2  1  0  0  0  0
  2  3  1  0  0  0  0
  3  4  1  0  0  0  0
  4  5  1  0  0  0  0
  5  6  2  0  0  0  0
  6  7  1  0  0  0  0
  7  8  2  0  0  0  0
  7  9  1  0  0  0  0
 10  9  1  1  0  0  0
 10 11  1  0  0  0  0
 11 12  1  0  0  0  0
 12 13  1  0  0  0  0
 13 14  1  0  0  0  0
 14 15  1  0  0  0  0
 15 16  1  0  0  0  0
 16 17  1  0  0  0  0
 12 17  1  0  0  0  0
 10 18  1  0  0  0  0
 18 19  2  0  0  0  0
 18 20  1  0  0  0  0
 21 20  1  1  0  0  0
 21 22  1  0  0  0  0
 22 23  1  0  0  0  0
 23 24  1  0  0  0  0
 24 25  2  0  0  0  0
 24 26  1  0  0  0  0
 26 27  1  0  0  0  0
 27 28  1  0  0  0  0
 28 29  1  1  0  0  0
 28 30  1  0  0  0  0
 30 31  1  0  0  0  0
 26 31  1  6  0  0  0
 31 32  1  0  0  0  0
 32 33  2  0  0  0  0
 32 34  1  0  0  0  0
 34 35  1  6  0  0  0
 35 36  1  0  0  0  0
 34 37  1  0  0  0  0
 37 38  1  0  0  0  0
 38 39  2  0  0  0  0
 38 40  1  0  0  0  0
 40 41  1  0  0  0  0
 41 42  1  0  0  0  0
 42 43  1  0  0  0  0
 43 44  1  0  0  0  0
 44 45  1  0  0  0  0
 40 45  1  6  0  0  0
 45 46  1  0  0  0  0
 46 47  2  0  0  0  0
 46 48  1  0  0  0  0
 48 49  1  0  0  0  0
 49 50  1  0  0  0  0
 50 51  1  0  0  0  0
 51 52  1  0  0  0  0
 48 52  1  6  0  0  0
 52 53  1  0  0  0  0
 21 53  1  0  0  0  0
 53 54  2  0  0  0  0
M  END
> <Molecule Name>
CHEMBL3765150

> <IUPAC>
(2E)-N-[(1S)-2-cyclohexyl-1-{[(3S,9S,13S,15R,19S,22S)-19-ethyl-15-methyl-2,8,12,18,21-pentaoxo-11-oxa-1,7,17,20-tetraazatetracyclo[20.4.0.0,.0,]hexacosan-9-yl]carbamoyl}ethyl]hept-2-enam
ide

> <Collections>
Set2_NotListedAsBetaLactamResistant (mostly)

> <ChEMBL_Data_Neisseria_g: NUM_RO5_VIOLATIONS>
1

> <ChEMBL_Data_Neisseria_g: Qualifier_for_MIC_Ng>
=

> <ChEMBL_Data_Neisseria_g: ASSAY_CHEMBLID>
CHEMBL3766315

> <ChEMBL_Data_Neisseria_g: DESCRIPTION_of_Assay_Ng>
Antibacterial activity against chloramphenicol-resistant Neisseria gonorrhoeae N.279 incubated for 16 to 18 hrs by broth microdilution method

> <ChEMBL_Data_Neisseria_g: PUBMED_ID>
26818454

> <ChEMBL_Data_Neisseria_g: YEAR>
2016

> <ChEMBL_Data_Neisseria_g: JOURNAL>
J. Med. Chem.

> <ChEMBL_Data_Neisseria_g: VOLUME>
59

> <ChEMBL_Data_Neisseria_g: FIRST_PAGE>
624

> <ChEMBL_Data_Neisseria_g: MIC_vs_Neisseria_microg_per_mL>
32

> <ALogP>
3.705

> <Active>
0

> <Molecular_Weight>
754.956

> <ChEMBL_Data_Neisseria_g: STRAIN_of_Ng>
N.279

$$$$

Generated by Molecular Materials Informatics

 55 59  0  0  0  0  0  0  0  0999 V2000
   18.7222    8.2842    0.0000 C   0  0  0  0  0  0  0  0  0  0  0  0
   17.2871    8.7208    0.0000 C   0  0  0  0  0  0  0  0  0  0  0  0
   16.1915    7.6964    0.0000 C   0  0  0  0  0  0  0  0  0  0  0  0
   14.7564    8.1332    0.0000 C   0  0  0  0  0  0  0  0  0  0  0  0
   13.6608    7.1086    0.0000 C   0  0  0  0  0  0  0  0  0  0  0  0
   12.2257    7.5453    0.0000 C   0  0  0  0  0  0  0  0  0  0  0  0
   11.1301    6.5210    0.0000 C   0  0  0  0  0  0  0  0  0  0  0  0
   12.2633    5.5383    0.0000 O   0  0  0  0  0  0  0  0  0  0  0  0
    9.6950    6.9575    0.0000 N   0  0  0  0  0  0  0  0  0  0  0  0
    8.5994    5.9332    0.0000 C   0  0  0  0  0  0  0  0  0  0  0  0
    8.9386    4.4721    0.0000 C   0  0  0  0  0  0  0  0  0  0  0  0
   10.3737    4.0354    0.0000 C   0  0  0  0  0  0  0  0  0  0  0  0
   11.4693    5.0597    0.0000 C   0  0  0  0  0  0  0  0  0  0  0  0
   12.9044    4.6232    0.0000 C   0  0  0  0  0  0  0  0  0  0  0  0
   14.0001    5.6475    0.0000 F   0  0  0  0  0  0  0  0  0  0  0  0
   13.2437    3.1621    0.0000 C   0  0  0  0  0  0  0  0  0  0  0  0
   12.1481    2.1375    0.0000 C   0  0  0  0  0  0  0  0  0  0  0  0
   12.4873    0.6764    0.0000 F   0  0  0  0  0  0  0  0  0  0  0  0
   10.7130    2.5743    0.0000 C   0  0  0  0  0  0  0  0  0  0  0  0
    7.1643    6.3699    0.0000 C   0  0  0  0  0  0  0  0  0  0  0  0
    6.8250    7.8310    0.0000 O   0  0  0  0  0  0  0  0  0  0  0  0
    6.0686    5.3453    0.0000 N   0  0  0  0  0  0  0  0  0  0  0  0
    6.4079    3.8843    0.0000 C   0  0  0  0  0  0  0  0  0  0  0  0
    7.8430    3.4475    0.0000 C   0  0  0  0  0  0  0  0  0  0  0  0
    8.1823    1.9864    0.0000 O   0  0  0  0  0  0  0  0  0  0  0  0
    9.6173    1.5499    0.0000 C   0  0  0  0  0  0  0  0  0  0  0  0
   11.1059    1.7346    0.0000 O   0  0  0  0  0  0  0  0  0  0  0  0
    9.9566    0.0886    0.0000 C   0  0  0  0  0  0  0  0  0  0  0  0
   11.2695   -0.6368    0.0000 C   0  0  0  0  0  0  0  0  0  0  0  0
   10.9853   -2.1095    0.0000 C   0  0  0  0  0  0  0  0  0  0  0  0
   12.0097   -3.2054    0.0000 C   0  0  0  0  0  0  0  0  0  0  0  0
    9.4966   -2.2943    0.0000 C   0  0  0  0  0  0  0  0  0  0  0  0
    8.8610   -0.9357    0.0000 N   0  0  0  0  0  0  0  0  0  0  0  0
    7.4259   -0.4990    0.0000 C   0  0  0  0  0  0  0  0  0  0  0  0
    7.0866    0.9621    0.0000 O   0  0  0  0  0  0  0  0  0  0  0  0
    6.3303   -1.5235    0.0000 C   0  0  0  0  0  0  0  0  0  0  0  0
    6.6695   -2.9846    0.0000 C   0  0  0  0  0  0  0  0  0  0  0  0
    5.5739   -4.0090    0.0000 C   0  0  0  0  0  0  0  0  0  0  0  0
    4.8952   -1.0868    0.0000 N   0  0  0  0  0  0  0  0  0  0  0  0
    3.7995   -2.1112    0.0000 C   0  0  0  0  0  0  0  0  0  0  0  0
    4.1388   -3.5723    0.0000 O   0  0  0  0  0  0  0  0  0  0  0  0
    2.3645   -1.6746    0.0000 C   0  0  0  0  0  0  0  0  0  0  0  0
    1.0797   -2.4488    0.0000 C   0  0  0  0  0  0  0  0  0  0  0  0
   -0.0535   -1.4663    0.0000 C   0  0  0  0  0  0  0  0  0  0  0  0
    0.5306   -0.0846    0.0000 C   0  0  0  0  0  0  0  0  0  0  0  0
    2.0252   -0.2135    0.0000 N   0  0  0  0  0  0  0  0  0  0  0  0
    3.1208    0.8110    0.0000 C   0  0  0  0  0  0  0  0  0  0  0  0
    4.5559    0.3743    0.0000 O   0  0  0  0  0  0  0  0  0  0  0  0
    2.7815    2.2721    0.0000 C   0  0  0  0  0  0  0  0  0  0  0  0
    1.4686    2.9975    0.0000 C   0  0  0  0  0  0  0  0  0  0  0  0
    1.7530    4.4704    0.0000 C   0  0  0  0  0  0  0  0  0  0  0  0
    3.2415    4.6552    0.0000 C   0  0  0  0  0  0  0  0  0  0  0  0
    3.8772    3.2964    0.0000 N   0  0  0  0  0  0  0  0  0  0  0  0
    5.3123    2.8599    0.0000 C   0  0  0  0  0  0  0  0  0  0  0  0
    5.6515    1.3988    0.0000 O   0  0  0  0  0  0  0  0  0  0  0  0
  1  2  1  0  0  0  0
  2  3  1  0  0  0  0
  3  4  1  0  0  0  0
  4  5  1  0  0  0  0
  5  6  2  0  0  0  0
  6  7  1  0  0  0  0
  7  8  2  0  0  0  0
  7  9  1  0  0  0  0
 10  9  1  1  0  0  0
 10 11  1  0  0  0  0
 11 12  1  0  0  0  0
 12 13  2  0  0  0  0
 13 14  1  0  0  0  0
 14 15  1  0  0  0  0
 14 16  2  0  0  0  0
 16 17  1  0  0  0  0
 17 18  1  0  0  0  0
 17 19  2  0  0  0  0
 12 19  1  0  0  0  0
 10 20  1  0  0  0  0
 20 21  2  0  0  0  0
 20 22  1  0  0  0  0
 23 22  1  1  0  0  0
 23 24  1  0  0  0  0
 24 25  1  0  0  0  0
 25 26  1  0  0  0  0
 26 27  2  0  0  0  0
 26 28  1  0  0  0  0
 28 29  1  0  0  0  0
 29 30  1  0  0  0  0
 30 31  1  1  0  0  0
 30 32  1  0  0  0  0
 32 33  1  0  0  0  0
 28 33  1  6  0  0  0
 33 34  1  0  0  0  0
 34 35  2  0  0  0  0
 34 36  1  0  0  0  0
 36 37  1  6  0  0  0
 37 38  1  0  0  0  0
 36 39  1  0  0  0  0
 39 40  1  0  0  0  0
 40 41  2  0  0  0  0
 40 42  1  0  0  0  0
 42 43  1  0  0  0  0
 43 44  1  0  0  0  0
 44 45  1  0  0  0  0
 45 46  1  0  0  0  0
 42 46  1  6  0  0  0
 46 47  1  0  0  0  0
 47 48  2  0  0  0  0
 47 49  1  0  0  0  0
 49 50  1  0  0  0  0
 50 51  1  0  0  0  0
 51 52  1  0  0  0  0
 52 53  1  0  0  0  0
 49 53  1  6  0  0  0
 53 54  1  0  0  0  0
 23 54  1  0  0  0  0
 54 55  2  0  0  0  0
M  END
> <Molecule Name>
CHEMBL3765030

> <IUPAC>
(2E)-N-[(1S)-2-(3,5-difluorophenyl)-1-{[(1S,7S,10S,14R,16S,20S)-10-ethyl-14-methyl-2,8,11,17,21-pentaoxo-18-oxa-3,9,12,22-tetraazatetracyclo[20.3.0.0,.0,]pentacosan-20-yl]carbamoyl}ethyl
]hept-2-enamide

> <Collections>
Set2_NotListedAsBetaLactamResistant (mostly)

> <ChEMBL_Data_Neisseria_g: NUM_RO5_VIOLATIONS>
1

> <ChEMBL_Data_Neisseria_g: Qualifier_for_MIC_Ng>
=

> <ChEMBL_Data_Neisseria_g: ASSAY_CHEMBLID>
CHEMBL3766315

> <ChEMBL_Data_Neisseria_g: DESCRIPTION_of_Assay_Ng>
Antibacterial activity against chloramphenicol-resistant Neisseria gonorrhoeae N.279 incubated for 16 to 18 hrs by broth microdilution method

> <ChEMBL_Data_Neisseria_g: PUBMED_ID>
26818454

> <ChEMBL_Data_Neisseria_g: YEAR>
2016

> <ChEMBL_Data_Neisseria_g: JOURNAL>
J. Med. Chem.

> <ChEMBL_Data_Neisseria_g: VOLUME>
59

> <ChEMBL_Data_Neisseria_g: FIRST_PAGE>
624

> <ChEMBL_Data_Neisseria_g: MIC_vs_Neisseria_microg_per_mL>
4

> <ALogP>
2.987

> <Active>
1

> <Molecular_Weight>
770.862

> <ChEMBL_Data_Neisseria_g: STRAIN_of_Ng>
N.279

$$$$

Generated by Molecular Materials Informatics

 56 60  0  0  0  0  0  0  0  0999 V2000
    9.6809   15.1876    0.0000 C   0  0  0  0  0  0  0  0  0  0  0  0
   10.0107   13.7243    0.0000 C   0  0  0  0  0  0  0  0  0  0  0  0
   11.4429   13.2781    0.0000 C   0  0  0  0  0  0  0  0  0  0  0  0
   11.7725   11.8149    0.0000 C   0  0  0  0  0  0  0  0  0  0  0  0
   10.6702   10.7976    0.0000 C   0  0  0  0  0  0  0  0  0  0  0  0
   11.0000    9.3344    0.0000 C   0  0  0  0  0  0  0  0  0  0  0  0
    9.8976    8.3171    0.0000 C   0  0  0  0  0  0  0  0  0  0  0  0
    9.0011    9.5198    0.0000 O   0  0  0  0  0  0  0  0  0  0  0  0
   10.2272    6.8538    0.0000 N   0  0  0  0  0  0  0  0  0  0  0  0
    9.1249    5.8366    0.0000 C   0  0  0  0  0  0  0  0  0  0  0  0
    7.6927    6.2828    0.0000 C   0  0  0  0  0  0  0  0  0  0  0  0
    7.3631    7.7460    0.0000 C   0  0  0  0  0  0  0  0  0  0  0  0
    5.9309    8.1922    0.0000 C   0  0  0  0  0  0  0  0  0  0  0  0
    5.6011    9.6554    0.0000 C   0  0  0  0  0  0  0  0  0  0  0  0
    4.1691   10.1014    0.0000 F   0  0  0  0  0  0  0  0  0  0  0  0
    6.7036   10.6727    0.0000 C   0  0  0  0  0  0  0  0  0  0  0  0
    8.1356   10.2265    0.0000 C   0  0  0  0  0  0  0  0  0  0  0  0
    9.2380   11.2438    0.0000 F   0  0  0  0  0  0  0  0  0  0  0  0
    8.4654    8.7633    0.0000 C   0  0  0  0  0  0  0  0  0  0  0  0
    9.4545    4.3733    0.0000 C   0  0  0  0  0  0  0  0  0  0  0  0
   10.8867    3.9273    0.0000 O   0  0  0  0  0  0  0  0  0  0  0  0
    8.3522    3.3562    0.0000 N   0  0  0  0  0  0  0  0  0  0  0  0
    8.6820    1.8928    0.0000 C   0  0  0  0  0  0  0  0  0  0  0  0
   10.1142    1.4468    0.0000 C   0  0  0  0  0  0  0  0  0  0  0  0
   11.2165    2.4641    0.0000 C   0  0  0  0  0  0  0  0  0  0  0  0
   10.4438   -0.0164    0.0000 O   0  0  0  0  0  0  0  0  0  0  0  0
   11.8760   -0.4626    0.0000 C   0  0  0  0  0  0  0  0  0  0  0  0
   12.9783    0.5546    0.0000 O   0  0  0  0  0  0  0  0  0  0  0  0
   12.2056   -1.9259    0.0000 C   0  0  0  0  0  0  0  0  0  0  0  0
   13.5138   -2.6601    0.0000 C   0  0  0  0  0  0  0  0  0  0  0  0
   13.2198   -4.1310    0.0000 C   0  0  0  0  0  0  0  0  0  0  0  0
   11.7300   -4.3059    0.0000 C   0  0  0  0  0  0  0  0  0  0  0  0
   11.1032   -2.9431    0.0000 N   0  0  0  0  0  0  0  0  0  0  0  0
    9.6711   -2.4970    0.0000 C   0  0  0  0  0  0  0  0  0  0  0  0
    9.3414   -1.0337    0.0000 O   0  0  0  0  0  0  0  0  0  0  0  0
    8.5687   -3.5142    0.0000 C   0  0  0  0  0  0  0  0  0  0  0  0
    8.8985   -4.9775    0.0000 C   0  0  0  0  0  0  0  0  0  0  0  0
    7.1367   -3.0681    0.0000 N   0  0  0  0  0  0  0  0  0  0  0  0
    6.0342   -4.0853    0.0000 C   0  0  0  0  0  0  0  0  0  0  0  0
    6.3640   -5.5486    0.0000 O   0  0  0  0  0  0  0  0  0  0  0  0
    4.6022   -3.6393    0.0000 C   0  0  0  0  0  0  0  0  0  0  0  0
    3.4999   -4.6564    0.0000 C   0  0  0  0  0  0  0  0  0  0  0  0
    2.0677   -4.2104    0.0000 C   0  0  0  0  0  0  0  0  0  0  0  0
    0.9653   -5.2275    0.0000 C   0  0  0  0  0  0  0  0  0  0  0  0
    1.7379   -2.7470    0.0000 C   0  0  0  0  0  0  0  0  0  0  0  0
    2.8402   -1.7299    0.0000 C   0  0  0  0  0  0  0  0  0  0  0  0
    4.2724   -2.1759    0.0000 N   0  0  0  0  0  0  0  0  0  0  0  0
    5.3748   -1.1588    0.0000 C   0  0  0  0  0  0  0  0  0  0  0  0
    6.8069   -1.6048    0.0000 O   0  0  0  0  0  0  0  0  0  0  0  0
    5.0451    0.3046    0.0000 C   0  0  0  0  0  0  0  0  0  0  0  0
    3.7369    1.0386    0.0000 C   0  0  0  0  0  0  0  0  0  0  0  0
    4.0309    2.5095    0.0000 C   0  0  0  0  0  0  0  0  0  0  0  0
    5.5207    2.6846    0.0000 C   0  0  0  0  0  0  0  0  0  0  0  0
    6.1475    1.3217    0.0000 N   0  0  0  0  0  0  0  0  0  0  0  0
    7.5796    0.8757    0.0000 C   0  0  0  0  0  0  0  0  0  0  0  0
    7.9093   -0.5875    0.0000 O   0  0  0  0  0  0  0  0  0  0  0  0
  1  2  1  0  0  0  0
  2  3  1  0  0  0  0
  3  4  1  0  0  0  0
  4  5  1  0  0  0  0
  5  6  2  0  0  0  0
  6  7  1  0  0  0  0
  7  8  2  0  0  0  0
  7  9  1  0  0  0  0
 10  9  1  6  0  0  0
 10 11  1  0  0  0  0
 11 12  1  0  0  0  0
 12 13  2  0  0  0  0
 13 14  1  0  0  0  0
 14 15  1  0  0  0  0
 14 16  2  0  0  0  0
 16 17  1  0  0  0  0
 17 18  1  0  0  0  0
 17 19  2  0  0  0  0
 12 19  1  0  0  0  0
 10 20  1  0  0  0  0
 20 21  2  0  0  0  0
 20 22  1  0  0  0  0
 23 22  1  1  0  0  0
 23 24  1  0  0  0  0
 24 25  1  6  0  0  0
 24 26  1  0  0  0  0
 26 27  1  0  0  0  0
 27 28  2  0  0  0  0
 27 29  1  0  0  0  0
 29 30  1  0  0  0  0
 30 31  1  0  0  0  0
 31 32  1  0  0  0  0
 32 33  1  0  0  0  0
 29 33  1  6  0  0  0
 33 34  1  0  0  0  0
 34 35  2  0  0  0  0
 34 36  1  0  0  0  0
 36 37  1  6  0  0  0
 36 38  1  0  0  0  0
 38 39  1  0  0  0  0
 39 40  2  0  0  0  0
 39 41  1  0  0  0  0
 41 42  1  0  0  0  0
 42 43  1  0  0  0  0
 43 44  1  1  0  0  0
 43 45  1  0  0  0  0
 45 46  1  0  0  0  0
 46 47  1  0  0  0  0
 41 47  1  6  0  0  0
 47 48  1  0  0  0  0
 48 49  2  0  0  0  0
 48 50  1  0  0  0  0
 50 51  1  0  0  0  0
 51 52  1  0  0  0  0
 52 53  1  0  0  0  0
 53 54  1  0  0  0  0
 50 54  1  6  0  0  0
 54 55  1  0  0  0  0
 23 55  1  0  0  0  0
 55 56  2  0  0  0  0
M  END
> <Molecule Name>
CHEMBL3764991

> <IUPAC>
(2E)-N-[(1S)-2-(3,5-difluorophenyl)-1-{[(3S,9S,10S,13S,19S,22S,24S)-10,19,24-trimethyl-2,8,12,18,21-pentaoxo-11-oxa-1,7,17,20-tetraazatetracyclo[20.4.0.0,.0,]hexacosan-9-yl]carbamoyl}eth
yl]hept-2-enamide

> <Collections>
Set2_NotListedAsBetaLactamResistant (mostly)

> <ChEMBL_Data_Neisseria_g: NUM_RO5_VIOLATIONS>
1

> <ChEMBL_Data_Neisseria_g: Qualifier_for_MIC_Ng>
=

> <ChEMBL_Data_Neisseria_g: ASSAY_CHEMBLID>
CHEMBL3766315

> <ChEMBL_Data_Neisseria_g: DESCRIPTION_of_Assay_Ng>
Antibacterial activity against chloramphenicol-resistant Neisseria gonorrhoeae N.279 incubated for 16 to 18 hrs by broth microdilution method

> <ChEMBL_Data_Neisseria_g: PUBMED_ID>
26818454

> <ChEMBL_Data_Neisseria_g: YEAR>
2016

> <ChEMBL_Data_Neisseria_g: JOURNAL>
J. Med. Chem.

> <ChEMBL_Data_Neisseria_g: VOLUME>
59

> <ChEMBL_Data_Neisseria_g: FIRST_PAGE>
624

> <ChEMBL_Data_Neisseria_g: MIC_vs_Neisseria_microg_per_mL>
0.125

> <ALogP>
3.23

> <Active>
1

> <Molecular_Weight>
784.889

> <ChEMBL_Data_Neisseria_g: STRAIN_of_Ng>
N.279

$$$$

Generated by Molecular Materials Informatics

 59 64  0  0  0  0  0  0  0  0999 V2000
    9.8688   -1.4437    0.0000 C   0  0  0  0  0  0  0  0  0  0  0  0
    8.3688   -1.4437    0.0000 C   0  0  0  0  0  0  0  0  0  0  0  0
    7.4870   -0.2303    0.0000 C   0  0  0  0  0  0  0  0  0  0  0  0
    6.0605   -0.6937    0.0000 C   0  0  0  0  0  0  0  0  0  0  0  0
    6.0605   -2.1937    0.0000 N   0  0  0  0  0  0  0  0  0  0  0  0
    7.4870   -2.6572    0.0000 C   0  0  0  0  0  0  0  0  0  0  0  0
    4.7615   -2.9437    0.0000 C   0  0  0  0  0  0  0  0  0  0  0  0
    3.4625   -2.1937    0.0000 O   0  0  0  0  0  0  0  0  0  0  0  0
    4.7615   -4.4437    0.0000 C   0  0  0  0  0  0  0  0  0  0  0  0
    6.0605   -5.1937    0.0000 C   0  0  0  0  0  0  0  0  0  0  0  0
    3.4625   -5.1937    0.0000 N   0  0  0  0  0  0  0  0  0  0  0  0
    2.1634   -4.4437    0.0000 C   0  0  0  0  0  0  0  0  0  0  0  0
    2.1634   -2.9437    0.0000 O   0  0  0  0  0  0  0  0  0  0  0  0
    0.8643   -5.1937    0.0000 C   0  0  0  0  0  0  0  0  0  0  0  0
    0.8643   -6.6937    0.0000 C   0  0  0  0  0  0  0  0  0  0  0  0
   -0.4346   -7.4437    0.0000 C   0  0  0  0  0  0  0  0  0  0  0  0
   -1.7337   -6.6937    0.0000 C   0  0  0  0  0  0  0  0  0  0  0  0
   -1.7337   -5.1937    0.0000 C   0  0  0  0  0  0  0  0  0  0  0  0
   -0.4346   -4.4437    0.0000 N   0  0  0  0  0  0  0  0  0  0  0  0
   -0.4346   -2.9437    0.0000 C   0  0  0  0  0  0  0  0  0  0  0  0
    0.8643   -2.1937    0.0000 O   0  0  0  0  0  0  0  0  0  0  0  0
   -1.7337   -2.1937    0.0000 C   0  0  0  0  0  0  0  0  0  0  0  0
   -3.1603   -2.6572    0.0000 C   0  0  0  0  0  0  0  0  0  0  0  0
   -4.0419   -1.4437    0.0000 C   0  0  0  0  0  0  0  0  0  0  0  0
   -3.1603   -0.2303    0.0000 C   0  0  0  0  0  0  0  0  0  0  0  0
   -1.7337   -0.6937    0.0000 N   0  0  0  0  0  0  0  0  0  0  0  0
   -0.4346    0.0562    0.0000 C   0  0  0  0  0  0  0  0  0  0  0  0
   -1.3165    1.2697    0.0000 O   0  0  0  0  0  0  0  0  0  0  0  0
    0.8643   -0.6937    0.0000 C   0  0  0  0  0  0  0  0  0  0  0  0
    0.8643    0.8062    0.0000 N   0  0  0  0  0  0  0  0  0  0  0  0
   -0.4346    1.5562    0.0000 C   0  0  0  0  0  0  0  0  0  0  0  0
   -1.9265    1.7130    0.0000 O   0  0  0  0  0  0  0  0  0  0  0  0
   -0.4346    3.0563    0.0000 C   0  0  0  0  0  0  0  0  0  0  0  0
    0.8643    3.8062    0.0000 C   0  0  0  0  0  0  0  0  0  0  0  0
    0.8643    5.3062    0.0000 C   0  0  0  0  0  0  0  0  0  0  0  0
   -0.4346    6.0562    0.0000 C   0  0  0  0  0  0  0  0  0  0  0  0
   -0.4346    7.5563    0.0000 C   0  0  0  0  0  0  0  0  0  0  0  0
   -1.7337    8.3062    0.0000 F   0  0  0  0  0  0  0  0  0  0  0  0
    0.8643    8.3062    0.0000 C   0  0  0  0  0  0  0  0  0  0  0  0
    2.1634    7.5563    0.0000 C   0  0  0  0  0  0  0  0  0  0  0  0
    3.4625    8.3062    0.0000 F   0  0  0  0  0  0  0  0  0  0  0  0
    2.1634    6.0562    0.0000 C   0  0  0  0  0  0  0  0  0  0  0  0
   -1.7337    3.8062    0.0000 N   0  0  0  0  0  0  0  0  0  0  0  0
   -1.7337    5.3062    0.0000 C   0  0  0  0  0  0  0  0  0  0  0  0
   -1.1235    6.6766    0.0000 O   0  0  0  0  0  0  0  0  0  0  0  0
   -3.0328    6.0562    0.0000 C   0  0  0  0  0  0  0  0  0  0  0  0
   -3.0328    7.5563    0.0000 C   0  0  0  0  0  0  0  0  0  0  0  0
   -4.3317    8.3062    0.0000 C   0  0  0  0  0  0  0  0  0  0  0  0
   -4.3317    9.8062    0.0000 C   0  0  0  0  0  0  0  0  0  0  0  0
   -5.6308   10.5562    0.0000 C   0  0  0  0  0  0  0  0  0  0  0  0
   -5.6308   12.0562    0.0000 C   0  0  0  0  0  0  0  0  0  0  0  0
   -4.3317   12.8062    0.0000 C   0  0  0  0  0  0  0  0  0  0  0  0
   -3.0328   12.0562    0.0000 C   0  0  0  0  0  0  0  0  0  0  0  0
   -3.0328   10.5562    0.0000 C   0  0  0  0  0  0  0  0  0  0  0  0
    2.1634    0.0562    0.0000 C   0  0  0  0  0  0  0  0  0  0  0  0
    2.1634    1.5562    0.0000 C   0  0  0  0  0  0  0  0  0  0  0  0
    3.4625   -0.6937    0.0000 O   0  0  0  0  0  0  0  0  0  0  0  0
    4.7615    0.0562    0.0000 C   0  0  0  0  0  0  0  0  0  0  0  0
    4.7615    1.5562    0.0000 O   0  0  0  0  0  0  0  0  0  0  0  0
  2  1  1  1  0  0  0
  2  3  1  0  0  0  0
  3  4  1  0  0  0  0
  4  5  1  6  0  0  0
  5  6  1  0  0  0  0
  2  6  1  0  0  0  0
  5  7  1  0  0  0  0
  7  8  2  0  0  0  0
  7  9  1  0  0  0  0
  9 10  1  6  0  0  0
  9 11  1  0  0  0  0
 11 12  1  0  0  0  0
 12 13  2  0  0  0  0
 12 14  1  0  0  0  0
 14 15  1  0  0  0  0
 15 16  1  0  0  0  0
 16 17  1  0  0  0  0
 17 18  1  0  0  0  0
 18 19  1  0  0  0  0
 14 19  1  6  0  0  0
 19 20  1  0  0  0  0
 20 21  2  0  0  0  0
 20 22  1  0  0  0  0
 22 23  1  0  0  0  0
 23 24  1  0  0  0  0
 24 25  1  0  0  0  0
 25 26  1  0  0  0  0
 22 26  1  6  0  0  0
 26 27  1  0  0  0  0
 27 28  2  0  0  0  0
 27 29  1  0  0  0  0
 29 30  1  6  0  0  0
 30 31  1  0  0  0  0
 31 32  2  0  0  0  0
 31 33  1  0  0  0  0
 33 34  1  0  0  0  0
 34 35  1  0  0  0  0
 35 36  2  0  0  0  0
 36 37  1  0  0  0  0
 37 38  1  0  0  0  0
 37 39  2  0  0  0  0
 39 40  1  0  0  0  0
 40 41  1  0  0  0  0
 40 42  2  0  0  0  0
 35 42  1  0  0  0  0
 33 43  1  1  0  0  0
 43 44  1  0  0  0  0
 44 45  2  0  0  0  0
 44 46  1  0  0  0  0
 46 47  2  0  0  0  0
 47 48  1  0  0  0  0
 48 49  1  0  0  0  0
 49 50  1  0  0  0  0
 50 51  1  0  0  0  0
 51 52  1  0  0  0  0
 52 53  1  0  0  0  0
 53 54  1  0  0  0  0
 49 54  1  0  0  0  0
 29 55  1  0  0  0  0
 55 56  1  6  0  0  0
 55 57  1  0  0  0  0
 57 58  1  0  0  0  0
  4 58  1  0  0  0  0
 58 59  2  0  0  0  0
M  END
> <Molecule Name>
CHEMBL3764968

> <IUPAC>
(2E)-4-cyclohexyl-N-[(1S)-2-(3,5-difluorophenyl)-1-{[(3S,9S,10S,13S,15R,19S,22S)-10,15,19-trimethyl-2,8,12,18,21-pentaoxo-11-oxa-1,7,17,20-tetraazatetracyclo[20.4.0.0,.0,]hexacosan-9-yl]
carbamoyl}ethyl]but-2-enamide

> <Collections>
Set2_NotListedAsBetaLactamResistant (mostly)

> <ChEMBL_Data_Neisseria_g: NUM_RO5_VIOLATIONS>
1

> <ChEMBL_Data_Neisseria_g: Qualifier_for_MIC_Ng>
=

> <ChEMBL_Data_Neisseria_g: ASSAY_CHEMBLID>
CHEMBL3766315

> <ChEMBL_Data_Neisseria_g: DESCRIPTION_of_Assay_Ng>
Antibacterial activity against chloramphenicol-resistant Neisseria gonorrhoeae N.279 incubated for 16 to 18 hrs by broth microdilution method

> <ChEMBL_Data_Neisseria_g: PUBMED_ID>
26818454

> <ChEMBL_Data_Neisseria_g: YEAR>
2016

> <ChEMBL_Data_Neisseria_g: JOURNAL>
J. Med. Chem.

> <ChEMBL_Data_Neisseria_g: VOLUME>
59

> <ChEMBL_Data_Neisseria_g: FIRST_PAGE>
624

> <ChEMBL_Data_Neisseria_g: MIC_vs_Neisseria_microg_per_mL>
0.125

> <ALogP>
4.09

> <Active>
1

> <Molecular_Weight>
824.953

> <ChEMBL_Data_Neisseria_g: STRAIN_of_Ng>
N.279

$$$$

Generated by Molecular Materials Informatics

 56 61  0  0  0  0  0  0  0  0999 V2000
    9.7453   -1.0610    0.0000 C   0  0  0  0  0  0  0  0  0  0  0  0
    8.2453   -1.0610    0.0000 C   0  0  0  0  0  0  0  0  0  0  0  0
    7.3635    0.1524    0.0000 C   0  0  0  0  0  0  0  0  0  0  0  0
    5.9369   -0.3110    0.0000 C   0  0  0  0  0  0  0  0  0  0  0  0
    5.9369   -1.8110    0.0000 N   0  0  0  0  0  0  0  0  0  0  0  0
    7.3635   -2.2745    0.0000 C   0  0  0  0  0  0  0  0  0  0  0  0
    4.6380   -2.5610    0.0000 C   0  0  0  0  0  0  0  0  0  0  0  0
    3.3389   -1.8110    0.0000 O   0  0  0  0  0  0  0  0  0  0  0  0
    4.6380   -4.0610    0.0000 C   0  0  0  0  0  0  0  0  0  0  0  0
    5.9369   -4.8110    0.0000 C   0  0  0  0  0  0  0  0  0  0  0  0
    3.3389   -4.8110    0.0000 N   0  0  0  0  0  0  0  0  0  0  0  0
    2.0398   -4.0610    0.0000 C   0  0  0  0  0  0  0  0  0  0  0  0
    2.0398   -2.5610    0.0000 O   0  0  0  0  0  0  0  0  0  0  0  0
    0.7407   -4.8110    0.0000 C   0  0  0  0  0  0  0  0  0  0  0  0
    0.7407   -6.3110    0.0000 C   0  0  0  0  0  0  0  0  0  0  0  0
   -0.5582   -7.0610    0.0000 C   0  0  0  0  0  0  0  0  0  0  0  0
   -1.8573   -6.3110    0.0000 C   0  0  0  0  0  0  0  0  0  0  0  0
   -1.8573   -4.8110    0.0000 C   0  0  0  0  0  0  0  0  0  0  0  0
   -0.5582   -4.0610    0.0000 N   0  0  0  0  0  0  0  0  0  0  0  0
   -0.5582   -2.5610    0.0000 C   0  0  0  0  0  0  0  0  0  0  0  0
    0.7407   -1.8110    0.0000 O   0  0  0  0  0  0  0  0  0  0  0  0
   -1.8573   -1.8110    0.0000 C   0  0  0  0  0  0  0  0  0  0  0  0
   -3.2838   -2.2745    0.0000 C   0  0  0  0  0  0  0  0  0  0  0  0
   -4.1655   -1.0610    0.0000 C   0  0  0  0  0  0  0  0  0  0  0  0
   -3.2838    0.1524    0.0000 C   0  0  0  0  0  0  0  0  0  0  0  0
   -1.8573   -0.3110    0.0000 N   0  0  0  0  0  0  0  0  0  0  0  0
   -0.5582    0.4390    0.0000 C   0  0  0  0  0  0  0  0  0  0  0  0
   -1.4400    1.6524    0.0000 O   0  0  0  0  0  0  0  0  0  0  0  0
    0.7407   -0.3110    0.0000 C   0  0  0  0  0  0  0  0  0  0  0  0
    0.7407    1.1890    0.0000 N   0  0  0  0  0  0  0  0  0  0  0  0
   -0.5582    1.9390    0.0000 C   0  0  0  0  0  0  0  0  0  0  0  0
   -2.0500    2.0957    0.0000 O   0  0  0  0  0  0  0  0  0  0  0  0
   -0.5582    3.4390    0.0000 C   0  0  0  0  0  0  0  0  0  0  0  0
    0.7407    4.1890    0.0000 C   0  0  0  0  0  0  0  0  0  0  0  0
    0.7407    5.6890    0.0000 C   0  0  0  0  0  0  0  0  0  0  0  0
   -0.5582    6.4390    0.0000 C   0  0  0  0  0  0  0  0  0  0  0  0
   -0.5582    7.9390    0.0000 C   0  0  0  0  0  0  0  0  0  0  0  0
   -1.8573    8.6890    0.0000 F   0  0  0  0  0  0  0  0  0  0  0  0
    0.7407    8.6890    0.0000 C   0  0  0  0  0  0  0  0  0  0  0  0
    2.0398    7.9390    0.0000 C   0  0  0  0  0  0  0  0  0  0  0  0
    3.3389    8.6890    0.0000 F   0  0  0  0  0  0  0  0  0  0  0  0
    2.0398    6.4390    0.0000 C   0  0  0  0  0  0  0  0  0  0  0  0
   -1.8573    4.1890    0.0000 N   0  0  0  0  0  0  0  0  0  0  0  0
   -1.8573    5.6890    0.0000 C   0  0  0  0  0  0  0  0  0  0  0  0
   -1.2471    7.0593    0.0000 O   0  0  0  0  0  0  0  0  0  0  0  0
   -3.1564    6.4390    0.0000 C   0  0  0  0  0  0  0  0  0  0  0  0
   -3.1564    7.9390    0.0000 C   0  0  0  0  0  0  0  0  0  0  0  0
   -4.4553    8.6890    0.0000 C   0  0  0  0  0  0  0  0  0  0  0  0
   -4.4553   10.1890    0.0000 C   0  0  0  0  0  0  0  0  0  0  0  0
   -5.2053   11.4880    0.0000 C   0  0  0  0  0  0  0  0  0  0  0  0
   -3.7053   11.4880    0.0000 C   0  0  0  0  0  0  0  0  0  0  0  0
    2.0398    0.4390    0.0000 C   0  0  0  0  0  0  0  0  0  0  0  0
    2.0398    1.9390    0.0000 C   0  0  0  0  0  0  0  0  0  0  0  0
    3.3389   -0.3110    0.0000 O   0  0  0  0  0  0  0  0  0  0  0  0
    4.6380    0.4390    0.0000 C   0  0  0  0  0  0  0  0  0  0  0  0
    4.6380    1.9390    0.0000 O   0  0  0  0  0  0  0  0  0  0  0  0
  2  1  1  1  0  0  0
  2  3  1  0  0  0  0
  3  4  1  0  0  0  0
  4  5  1  6  0  0  0
  5  6  1  0  0  0  0
  2  6  1  0  0  0  0
  5  7  1  0  0  0  0
  7  8  2  0  0  0  0
  7  9  1  0  0  0  0
  9 10  1  6  0  0  0
  9 11  1  0  0  0  0
 11 12  1  0  0  0  0
 12 13  2  0  0  0  0
 12 14  1  0  0  0  0
 14 15  1  0  0  0  0
 15 16  1  0  0  0  0
 16 17  1  0  0  0  0
 17 18  1  0  0  0  0
 18 19  1  0  0  0  0
 14 19  1  6  0  0  0
 19 20  1  0  0  0  0
 20 21  2  0  0  0  0
 20 22  1  0  0  0  0
 22 23  1  0  0  0  0
 23 24  1  0  0  0  0
 24 25  1  0  0  0  0
 25 26  1  0  0  0  0
 22 26  1  6  0  0  0
 26 27  1  0  0  0  0
 27 28  2  0  0  0  0
 27 29  1  0  0  0  0
 29 30  1  6  0  0  0
 30 31  1  0  0  0  0
 31 32  2  0  0  0  0
 31 33  1  0  0  0  0
 33 34  1  0  0  0  0
 34 35  1  0  0  0  0
 35 36  2  0  0  0  0
 36 37  1  0  0  0  0
 37 38  1  0  0  0  0
 37 39  2  0  0  0  0
 39 40  1  0  0  0  0
 40 41  1  0  0  0  0
 40 42  2  0  0  0  0
 35 42  1  0  0  0  0
 33 43  1  1  0  0  0
 43 44  1  0  0  0  0
 44 45  2  0  0  0  0
 44 46  1  0  0  0  0
 46 47  2  0  0  0  0
 47 48  1  0  0  0  0
 48 49  1  0  0  0  0
 49 50  1  0  0  0  0
 50 51  1  0  0  0  0
 49 51  1  0  0  0  0
 29 52  1  0  0  0  0
 52 53  1  6  0  0  0
 52 54  1  0  0  0  0
 54 55  1  0  0  0  0
  4 55  1  0  0  0  0
 55 56  2  0  0  0  0
M  END
> <Molecule Name>
CHEMBL3764878

> <IUPAC>
(2E)-4-cyclopropyl-N-[(1S)-2-(3,5-difluorophenyl)-1-{[(3S,9S,10S,13S,15R,19S,22S)-10,15,19-trimethyl-2,8,12,18,21-pentaoxo-11-oxa-1,7,17,20-tetraazatetracyclo[20.4.0.0,.0,]hexacosan-9-yl
]carbamoyl}ethyl]but-2-enamide

> <Collections>
Set2_NotListedAsBetaLactamResistant (mostly)

> <ChEMBL_Data_Neisseria_g: NUM_RO5_VIOLATIONS>
1

> <ChEMBL_Data_Neisseria_g: Qualifier_for_MIC_Ng>
=

> <ChEMBL_Data_Neisseria_g: ASSAY_CHEMBLID>
CHEMBL3766315

> <ChEMBL_Data_Neisseria_g: DESCRIPTION_of_Assay_Ng>
Antibacterial activity against chloramphenicol-resistant Neisseria gonorrhoeae N.279 incubated for 16 to 18 hrs by broth microdilution method

> <ChEMBL_Data_Neisseria_g: PUBMED_ID>
26818454

> <ChEMBL_Data_Neisseria_g: YEAR>
2016

> <ChEMBL_Data_Neisseria_g: JOURNAL>
J. Med. Chem.

> <ChEMBL_Data_Neisseria_g: VOLUME>
59

> <ChEMBL_Data_Neisseria_g: FIRST_PAGE>
624

> <ChEMBL_Data_Neisseria_g: MIC_vs_Neisseria_microg_per_mL>
0.125

> <ALogP>
2.721

> <Active>
1

> <Molecular_Weight>
782.873

> <ChEMBL_Data_Neisseria_g: STRAIN_of_Ng>
N.279

$$$$

Generated by Molecular Materials Informatics

 56 60  0  0  0  0  0  0  0  0999 V2000
   -0.2997   13.4171    0.0000 C   0  0  0  0  0  0  0  0  0  0  0  0
    0.0299   11.9538    0.0000 C   0  0  0  0  0  0  0  0  0  0  0  0
    1.4621   11.5076    0.0000 C   0  0  0  0  0  0  0  0  0  0  0  0
    1.7919   10.0444    0.0000 C   0  0  0  0  0  0  0  0  0  0  0  0
    3.2239    9.5984    0.0000 C   0  0  0  0  0  0  0  0  0  0  0  0
    3.5537    8.1351    0.0000 C   0  0  0  0  0  0  0  0  0  0  0  0
    4.9859    7.6889    0.0000 C   0  0  0  0  0  0  0  0  0  0  0  0
    6.0882    8.7062    0.0000 O   0  0  0  0  0  0  0  0  0  0  0  0
    5.3155    6.2257    0.0000 N   0  0  0  0  0  0  0  0  0  0  0  0
    6.7477    5.7795    0.0000 C   0  0  0  0  0  0  0  0  0  0  0  0
    7.8500    6.7968    0.0000 C   0  0  0  0  0  0  0  0  0  0  0  0
    9.2822    6.3506    0.0000 C   0  0  0  0  0  0  0  0  0  0  0  0
   10.3845    7.3679    0.0000 C   0  0  0  0  0  0  0  0  0  0  0  0
   11.8167    6.9219    0.0000 C   0  0  0  0  0  0  0  0  0  0  0  0
   12.9191    7.9389    0.0000 F   0  0  0  0  0  0  0  0  0  0  0  0
   12.1463    5.4584    0.0000 C   0  0  0  0  0  0  0  0  0  0  0  0
   11.0440    4.4413    0.0000 C   0  0  0  0  0  0  0  0  0  0  0  0
   11.3738    2.9781    0.0000 F   0  0  0  0  0  0  0  0  0  0  0  0
    9.6118    4.8873    0.0000 C   0  0  0  0  0  0  0  0  0  0  0  0
    7.0775    4.3162    0.0000 C   0  0  0  0  0  0  0  0  0  0  0  0
    5.5877    4.1413    0.0000 O   0  0  0  0  0  0  0  0  0  0  0  0
    8.5095    3.8703    0.0000 N   0  0  0  0  0  0  0  0  0  0  0  0
    8.8393    2.4068    0.0000 C   0  0  0  0  0  0  0  0  0  0  0  0
   10.2714    1.9608    0.0000 C   0  0  0  0  0  0  0  0  0  0  0  0
   11.7611    2.1357    0.0000 C   0  0  0  0  0  0  0  0  0  0  0  0
   10.6011    0.4976    0.0000 O   0  0  0  0  0  0  0  0  0  0  0  0
   12.0332    0.0514    0.0000 C   0  0  0  0  0  0  0  0  0  0  0  0
   13.1356    1.0686    0.0000 O   0  0  0  0  0  0  0  0  0  0  0  0
   12.3629   -1.4119    0.0000 C   0  0  0  0  0  0  0  0  0  0  0  0
   13.6710   -2.1460    0.0000 C   0  0  0  0  0  0  0  0  0  0  0  0
   13.3771   -3.6169    0.0000 C   0  0  0  0  0  0  0  0  0  0  0  0
   14.3943   -4.7193    0.0000 C   0  0  0  0  0  0  0  0  0  0  0  0
   11.8872   -3.7918    0.0000 C   0  0  0  0  0  0  0  0  0  0  0  0
   11.2605   -2.4291    0.0000 N   0  0  0  0  0  0  0  0  0  0  0  0
    9.8284   -1.9830    0.0000 C   0  0  0  0  0  0  0  0  0  0  0  0
    9.4987   -0.5197    0.0000 O   0  0  0  0  0  0  0  0  0  0  0  0
    8.7260   -3.0002    0.0000 C   0  0  0  0  0  0  0  0  0  0  0  0
    9.0558   -4.4635    0.0000 C   0  0  0  0  0  0  0  0  0  0  0  0
    7.2940   -2.5540    0.0000 N   0  0  0  0  0  0  0  0  0  0  0  0
    6.1915   -3.5713    0.0000 C   0  0  0  0  0  0  0  0  0  0  0  0
    6.5213   -5.0346    0.0000 O   0  0  0  0  0  0  0  0  0  0  0  0
    4.7595   -3.1253    0.0000 C   0  0  0  0  0  0  0  0  0  0  0  0
    3.6572   -4.1424    0.0000 C   0  0  0  0  0  0  0  0  0  0  0  0
    2.2250   -3.6964    0.0000 C   0  0  0  0  0  0  0  0  0  0  0  0
    1.8952   -2.2330    0.0000 C   0  0  0  0  0  0  0  0  0  0  0  0
    2.9975   -1.2159    0.0000 C   0  0  0  0  0  0  0  0  0  0  0  0
    4.4297   -1.6619    0.0000 N   0  0  0  0  0  0  0  0  0  0  0  0
    5.5320   -0.6448    0.0000 C   0  0  0  0  0  0  0  0  0  0  0  0
    6.9642   -1.0908    0.0000 O   0  0  0  0  0  0  0  0  0  0  0  0
    5.2024    0.8186    0.0000 C   0  0  0  0  0  0  0  0  0  0  0  0
    3.8942    1.5526    0.0000 C   0  0  0  0  0  0  0  0  0  0  0  0
    4.1882    3.0235    0.0000 C   0  0  0  0  0  0  0  0  0  0  0  0
    5.6780    3.1986    0.0000 C   0  0  0  0  0  0  0  0  0  0  0  0
    6.3048    1.8357    0.0000 N   0  0  0  0  0  0  0  0  0  0  0  0
    7.7369    1.3897    0.0000 C   0  0  0  0  0  0  0  0  0  0  0  0
    8.0666   -0.0735    0.0000 O   0  0  0  0  0  0  0  0  0  0  0  0
  1  2  1  0  0  0  0
  2  3  1  0  0  0  0
  3  4  1  0  0  0  0
  4  5  1  0  0  0  0
  5  6  2  0  0  0  0
  6  7  1  0  0  0  0
  7  8  2  0  0  0  0
  7  9  1  0  0  0  0
 10  9  1  1  0  0  0
 10 11  1  0  0  0  0
 11 12  1  0  0  0  0
 12 13  2  0  0  0  0
 13 14  1  0  0  0  0
 14 15  1  0  0  0  0
 14 16  2  0  0  0  0
 16 17  1  0  0  0  0
 17 18  1  0  0  0  0
 17 19  2  0  0  0  0
 12 19  1  0  0  0  0
 10 20  1  0  0  0  0
 20 21  2  0  0  0  0
 20 22  1  0  0  0  0
 23 22  1  1  0  0  0
 23 24  1  0  0  0  0
 24 25  1  6  0  0  0
 24 26  1  0  0  0  0
 26 27  1  0  0  0  0
 27 28  2  0  0  0  0
 27 29  1  0  0  0  0
 29 30  1  0  0  0  0
 30 31  1  0  0  0  0
 31 32  1  1  0  0  0
 31 33  1  0  0  0  0
 33 34  1  0  0  0  0
 29 34  1  6  0  0  0
 34 35  1  0  0  0  0
 35 36  2  0  0  0  0
 35 37  1  0  0  0  0
 37 38  1  6  0  0  0
 37 39  1  0  0  0  0
 39 40  1  0  0  0  0
 40 41  2  0  0  0  0
 40 42  1  0  0  0  0
 42 43  1  0  0  0  0
 43 44  1  0  0  0  0
 44 45  1  0  0  0  0
 45 46  1  0  0  0  0
 46 47  1  0  0  0  0
 42 47  1  6  0  0  0
 47 48  1  0  0  0  0
 48 49  2  0  0  0  0
 48 50  1  0  0  0  0
 50 51  1  0  0  0  0
 51 52  1  0  0  0  0
 52 53  1  0  0  0  0
 53 54  1  0  0  0  0
 50 54  1  6  0  0  0
 54 55  1  0  0  0  0
 23 55  1  0  0  0  0
 55 56  2  0  0  0  0
M  END
> <Molecule Name>
CHEMBL3764513

> <IUPAC>
(2E)-N-[(1S)-2-(3,5-difluorophenyl)-1-{[(3S,9S,10S,13S,15R,19S,22S)-10,15,19-trimethyl-2,8,12,18,21-pentaoxo-11-oxa-1,7,17,20-tetraazatetracyclo[20.4.0.0,.0,]hexacosan-9-yl]carbamoyl}eth
yl]hept-2-enamide

> <Collections>
Set2_NotListedAsBetaLactamResistant (mostly)

> <ChEMBL_Data_Neisseria_g: NUM_RO5_VIOLATIONS>
1

> <ChEMBL_Data_Neisseria_g: Qualifier_for_MIC_Ng>
=

> <ChEMBL_Data_Neisseria_g: ASSAY_CHEMBLID>
CHEMBL3766315

> <ChEMBL_Data_Neisseria_g: DESCRIPTION_of_Assay_Ng>
Antibacterial activity against chloramphenicol-resistant Neisseria gonorrhoeae N.279 incubated for 16 to 18 hrs by broth microdilution method

> <ChEMBL_Data_Neisseria_g: PUBMED_ID>
26818454

> <ChEMBL_Data_Neisseria_g: YEAR>
2016

> <ChEMBL_Data_Neisseria_g: JOURNAL>
J. Med. Chem.

> <ChEMBL_Data_Neisseria_g: VOLUME>
59

> <ChEMBL_Data_Neisseria_g: FIRST_PAGE>
624

> <ChEMBL_Data_Neisseria_g: MIC_vs_Neisseria_microg_per_mL>
0.0625

> <ALogP>
3.297

> <Active>
1

> <Molecular_Weight>
784.889

> <ChEMBL_Data_Neisseria_g: STRAIN_of_Ng>
N.279

$$$$

Generated by Molecular Materials Informatics

 56 60  0  0  0  0  0  0  0  0999 V2000
    9.5182   15.1876    0.0000 C   0  0  0  0  0  0  0  0  0  0  0  0
    9.8480   13.7243    0.0000 C   0  0  0  0  0  0  0  0  0  0  0  0
   11.2801   13.2781    0.0000 C   0  0  0  0  0  0  0  0  0  0  0  0
   11.6098   11.8149    0.0000 C   0  0  0  0  0  0  0  0  0  0  0  0
   10.5074   10.7976    0.0000 C   0  0  0  0  0  0  0  0  0  0  0  0
   10.8372    9.3344    0.0000 C   0  0  0  0  0  0  0  0  0  0  0  0
    9.7349    8.3171    0.0000 C   0  0  0  0  0  0  0  0  0  0  0  0
    8.8383    9.5198    0.0000 O   0  0  0  0  0  0  0  0  0  0  0  0
   10.0645    6.8538    0.0000 N   0  0  0  0  0  0  0  0  0  0  0  0
    8.9622    5.8366    0.0000 C   0  0  0  0  0  0  0  0  0  0  0  0
    7.5300    6.2828    0.0000 C   0  0  0  0  0  0  0  0  0  0  0  0
    7.2004    7.7460    0.0000 C   0  0  0  0  0  0  0  0  0  0  0  0
    5.7682    8.1922    0.0000 C   0  0  0  0  0  0  0  0  0  0  0  0
    5.4384    9.6554    0.0000 C   0  0  0  0  0  0  0  0  0  0  0  0
    4.0064   10.1014    0.0000 F   0  0  0  0  0  0  0  0  0  0  0  0
    6.5409   10.6727    0.0000 C   0  0  0  0  0  0  0  0  0  0  0  0
    7.9729   10.2265    0.0000 C   0  0  0  0  0  0  0  0  0  0  0  0
    9.0753   11.2438    0.0000 F   0  0  0  0  0  0  0  0  0  0  0  0
    8.3027    8.7633    0.0000 C   0  0  0  0  0  0  0  0  0  0  0  0
    9.2918    4.3733    0.0000 C   0  0  0  0  0  0  0  0  0  0  0  0
   10.7240    3.9273    0.0000 O   0  0  0  0  0  0  0  0  0  0  0  0
    8.1894    3.3562    0.0000 N   0  0  0  0  0  0  0  0  0  0  0  0
    8.5193    1.8928    0.0000 C   0  0  0  0  0  0  0  0  0  0  0  0
    9.9514    1.4468    0.0000 C   0  0  0  0  0  0  0  0  0  0  0  0
   10.2811   -0.0164    0.0000 O   0  0  0  0  0  0  0  0  0  0  0  0
   11.7132   -0.4626    0.0000 C   0  0  0  0  0  0  0  0  0  0  0  0
   12.8156    0.5546    0.0000 O   0  0  0  0  0  0  0  0  0  0  0  0
   12.0429   -1.9259    0.0000 C   0  0  0  0  0  0  0  0  0  0  0  0
   13.3510   -2.6601    0.0000 C   0  0  0  0  0  0  0  0  0  0  0  0
   13.0570   -4.1310    0.0000 C   0  0  0  0  0  0  0  0  0  0  0  0
   14.0743   -5.2333    0.0000 C   0  0  0  0  0  0  0  0  0  0  0  0
   11.5672   -4.3059    0.0000 C   0  0  0  0  0  0  0  0  0  0  0  0
   10.9405   -2.9431    0.0000 N   0  0  0  0  0  0  0  0  0  0  0  0
    9.5083   -2.4970    0.0000 C   0  0  0  0  0  0  0  0  0  0  0  0
    9.1787   -1.0337    0.0000 O   0  0  0  0  0  0  0  0  0  0  0  0
    8.4060   -3.5142    0.0000 C   0  0  0  0  0  0  0  0  0  0  0  0
    8.7358   -4.9775    0.0000 C   0  0  0  0  0  0  0  0  0  0  0  0
    6.9740   -3.0681    0.0000 N   0  0  0  0  0  0  0  0  0  0  0  0
    5.8715   -4.0853    0.0000 C   0  0  0  0  0  0  0  0  0  0  0  0
    6.2013   -5.5486    0.0000 O   0  0  0  0  0  0  0  0  0  0  0  0
    4.4395   -3.6393    0.0000 C   0  0  0  0  0  0  0  0  0  0  0  0
    3.3371   -4.6564    0.0000 C   0  0  0  0  0  0  0  0  0  0  0  0
    1.9050   -4.2104    0.0000 C   0  0  0  0  0  0  0  0  0  0  0  0
    0.8026   -5.2275    0.0000 C   0  0  0  0  0  0  0  0  0  0  0  0
    1.5751   -2.7470    0.0000 C   0  0  0  0  0  0  0  0  0  0  0  0
    2.6775   -1.7299    0.0000 C   0  0  0  0  0  0  0  0  0  0  0  0
    4.1097   -2.1759    0.0000 N   0  0  0  0  0  0  0  0  0  0  0  0
    5.2120   -1.1588    0.0000 C   0  0  0  0  0  0  0  0  0  0  0  0
    6.6442   -1.6048    0.0000 O   0  0  0  0  0  0  0  0  0  0  0  0
    4.8824    0.3046    0.0000 C   0  0  0  0  0  0  0  0  0  0  0  0
    3.5742    1.0386    0.0000 C   0  0  0  0  0  0  0  0  0  0  0  0
    3.8682    2.5095    0.0000 C   0  0  0  0  0  0  0  0  0  0  0  0
    5.3580    2.6846    0.0000 C   0  0  0  0  0  0  0  0  0  0  0  0
    5.9847    1.3217    0.0000 N   0  0  0  0  0  0  0  0  0  0  0  0
    7.4169    0.8757    0.0000 C   0  0  0  0  0  0  0  0  0  0  0  0
    7.7465   -0.5875    0.0000 O   0  0  0  0  0  0  0  0  0  0  0  0
  1  2  1  0  0  0  0
  2  3  1  0  0  0  0
  3  4  1  0  0  0  0
  4  5  1  0  0  0  0
  5  6  2  0  0  0  0
  6  7  1  0  0  0  0
  7  8  2  0  0  0  0
  7  9  1  0  0  0  0
 10  9  1  6  0  0  0
 10 11  1  0  0  0  0
 11 12  1  0  0  0  0
 12 13  2  0  0  0  0
 13 14  1  0  0  0  0
 14 15  1  0  0  0  0
 14 16  2  0  0  0  0
 16 17  1  0  0  0  0
 17 18  1  0  0  0  0
 17 19  2  0  0  0  0
 12 19  1  0  0  0  0
 10 20  1  0  0  0  0
 20 21  2  0  0  0  0
 20 22  1  0  0  0  0
 23 22  1  1  0  0  0
 23 24  1  0  0  0  0
 24 25  1  0  0  0  0
 25 26  1  0  0  0  0
 26 27  2  0  0  0  0
 26 28  1  0  0  0  0
 28 29  1  0  0  0  0
 29 30  1  0  0  0  0
 30 31  1  1  0  0  0
 30 32  1  0  0  0  0
 32 33  1  0  0  0  0
 28 33  1  6  0  0  0
 33 34  1  0  0  0  0
 34 35  2  0  0  0  0
 34 36  1  0  0  0  0
 36 37  1  6  0  0  0
 36 38  1  0  0  0  0
 38 39  1  0  0  0  0
 39 40  2  0  0  0  0
 39 41  1  0  0  0  0
 41 42  1  0  0  0  0
 42 43  1  0  0  0  0
 43 44  1  1  0  0  0
 43 45  1  0  0  0  0
 45 46  1  0  0  0  0
 46 47  1  0  0  0  0
 41 47  1  6  0  0  0
 47 48  1  0  0  0  0
 48 49  2  0  0  0  0
 48 50  1  0  0  0  0
 50 51  1  0  0  0  0
 51 52  1  0  0  0  0
 52 53  1  0  0  0  0
 53 54  1  0  0  0  0
 50 54  1  6  0  0  0
 54 55  1  0  0  0  0
 23 55  1  0  0  0  0
 55 56  2  0  0  0  0
M  END
> <Molecule Name>
CHEMBL3764389

> <IUPAC>
(2E)-N-[(1S)-2-(3,5-difluorophenyl)-1-{[(3S,9S,13S,15R,19S,22S,24S)-15,19,24-trimethyl-2,8,12,18,21-pentaoxo-11-oxa-1,7,17,20-tetraazatetracyclo[20.4.0.0,.0,]hexacosan-9-yl]carbamoyl}eth
yl]hept-2-enamide

> <Collections>
Set2_NotListedAsBetaLactamResistant (mostly)

> <ChEMBL_Data_Neisseria_g: NUM_RO5_VIOLATIONS>
1

> <ChEMBL_Data_Neisseria_g: Qualifier_for_MIC_Ng>
=

> <ChEMBL_Data_Neisseria_g: ASSAY_CHEMBLID>
CHEMBL3766315

> <ChEMBL_Data_Neisseria_g: DESCRIPTION_of_Assay_Ng>
Antibacterial activity against chloramphenicol-resistant Neisseria gonorrhoeae N.279 incubated for 16 to 18 hrs by broth microdilution method

> <ChEMBL_Data_Neisseria_g: PUBMED_ID>
26818454

> <ChEMBL_Data_Neisseria_g: YEAR>
2016

> <ChEMBL_Data_Neisseria_g: JOURNAL>
J. Med. Chem.

> <ChEMBL_Data_Neisseria_g: VOLUME>
59

> <ChEMBL_Data_Neisseria_g: FIRST_PAGE>
624

> <ChEMBL_Data_Neisseria_g: MIC_vs_Neisseria_microg_per_mL>
0.0625

> <ALogP>
3.171

> <Active>
1

> <Molecular_Weight>
784.889

> <ChEMBL_Data_Neisseria_g: STRAIN_of_Ng>
N.279

$$$$

Generated by Molecular Materials Informatics

 55 59  0  0  0  0  0  0  0  0999 V2000
   19.1610    8.1308    0.0000 C   0  0  0  0  0  0  0  0  0  0  0  0
   17.7288    8.5770    0.0000 C   0  0  0  0  0  0  0  0  0  0  0  0
   16.6265    7.5597    0.0000 C   0  0  0  0  0  0  0  0  0  0  0  0
   15.1943    8.0059    0.0000 C   0  0  0  0  0  0  0  0  0  0  0  0
   14.0920    6.9887    0.0000 C   0  0  0  0  0  0  0  0  0  0  0  0
   12.6598    7.4348    0.0000 C   0  0  0  0  0  0  0  0  0  0  0  0
   11.5574    6.4176    0.0000 C   0  0  0  0  0  0  0  0  0  0  0  0
   12.6843    5.4276    0.0000 O   0  0  0  0  0  0  0  0  0  0  0  0
   10.1253    6.8636    0.0000 N   0  0  0  0  0  0  0  0  0  0  0  0
    9.0229    5.8465    0.0000 C   0  0  0  0  0  0  0  0  0  0  0  0
    9.3527    4.3832    0.0000 C   0  0  0  0  0  0  0  0  0  0  0  0
   10.7847    3.9371    0.0000 C   0  0  0  0  0  0  0  0  0  0  0  0
   11.8873    4.9543    0.0000 C   0  0  0  0  0  0  0  0  0  0  0  0
   13.3192    4.5081    0.0000 C   0  0  0  0  0  0  0  0  0  0  0  0
   14.4218    5.5254    0.0000 F   0  0  0  0  0  0  0  0  0  0  0  0
   13.6491    3.0449    0.0000 C   0  0  0  0  0  0  0  0  0  0  0  0
   12.5467    2.0276    0.0000 C   0  0  0  0  0  0  0  0  0  0  0  0
   12.8763    0.5644    0.0000 F   0  0  0  0  0  0  0  0  0  0  0  0
   11.1145    2.4738    0.0000 C   0  0  0  0  0  0  0  0  0  0  0  0
    7.5908    6.2925    0.0000 C   0  0  0  0  0  0  0  0  0  0  0  0
    7.2611    7.7557    0.0000 O   0  0  0  0  0  0  0  0  0  0  0  0
    6.4884    5.2754    0.0000 N   0  0  0  0  0  0  0  0  0  0  0  0
    6.8182    3.8120    0.0000 C   0  0  0  0  0  0  0  0  0  0  0  0
    8.2504    3.3660    0.0000 C   0  0  0  0  0  0  0  0  0  0  0  0
    8.5800    1.9027    0.0000 O   0  0  0  0  0  0  0  0  0  0  0  0
   10.0122    1.4565    0.0000 C   0  0  0  0  0  0  0  0  0  0  0  0
   11.5018    1.6316    0.0000 O   0  0  0  0  0  0  0  0  0  0  0  0
   10.3418   -0.0067    0.0000 C   0  0  0  0  0  0  0  0  0  0  0  0
   11.6500   -0.7409    0.0000 C   0  0  0  0  0  0  0  0  0  0  0  0
   11.3560   -2.2118    0.0000 C   0  0  0  0  0  0  0  0  0  0  0  0
   12.3732   -3.3141    0.0000 C   0  0  0  0  0  0  0  0  0  0  0  0
    9.8662   -2.3867    0.0000 C   0  0  0  0  0  0  0  0  0  0  0  0
    9.2395   -1.0240    0.0000 N   0  0  0  0  0  0  0  0  0  0  0  0
    7.8073   -0.5778    0.0000 C   0  0  0  0  0  0  0  0  0  0  0  0
    7.4777    0.8855    0.0000 O   0  0  0  0  0  0  0  0  0  0  0  0
    6.7049   -1.5951    0.0000 C   0  0  0  0  0  0  0  0  0  0  0  0
    7.0348   -3.0583    0.0000 C   0  0  0  0  0  0  0  0  0  0  0  0
    5.2730   -1.1489    0.0000 N   0  0  0  0  0  0  0  0  0  0  0  0
    4.1704   -2.1662    0.0000 C   0  0  0  0  0  0  0  0  0  0  0  0
    4.5002   -3.6294    0.0000 O   0  0  0  0  0  0  0  0  0  0  0  0
    2.7384   -1.7202    0.0000 C   0  0  0  0  0  0  0  0  0  0  0  0
    1.6361   -2.7372    0.0000 C   0  0  0  0  0  0  0  0  0  0  0  0
    0.2039   -2.2912    0.0000 C   0  0  0  0  0  0  0  0  0  0  0  0
   -0.1259   -0.8278    0.0000 C   0  0  0  0  0  0  0  0  0  0  0  0
    0.9765    0.1893    0.0000 C   0  0  0  0  0  0  0  0  0  0  0  0
    2.4086   -0.2567    0.0000 N   0  0  0  0  0  0  0  0  0  0  0  0
    3.5110    0.7604    0.0000 C   0  0  0  0  0  0  0  0  0  0  0  0
    4.9431    0.3144    0.0000 O   0  0  0  0  0  0  0  0  0  0  0  0
    3.1813    2.2238    0.0000 C   0  0  0  0  0  0  0  0  0  0  0  0
    1.8732    2.9578    0.0000 C   0  0  0  0  0  0  0  0  0  0  0  0
    2.1672    4.4287    0.0000 C   0  0  0  0  0  0  0  0  0  0  0  0
    3.6570    4.6038    0.0000 C   0  0  0  0  0  0  0  0  0  0  0  0
    4.2837    3.2409    0.0000 N   0  0  0  0  0  0  0  0  0  0  0  0
    5.7159    2.7949    0.0000 C   0  0  0  0  0  0  0  0  0  0  0  0
    6.0455    1.3316    0.0000 O   0  0  0  0  0  0  0  0  0  0  0  0
  1  2  1  0  0  0  0
  2  3  1  0  0  0  0
  3  4  1  0  0  0  0
  4  5  1  0  0  0  0
  5  6  2  0  0  0  0
  6  7  1  0  0  0  0
  7  8  2  0  0  0  0
  7  9  1  0  0  0  0
 10  9  1  1  0  0  0
 10 11  1  0  0  0  0
 11 12  1  0  0  0  0
 12 13  2  0  0  0  0
 13 14  1  0  0  0  0
 14 15  1  0  0  0  0
 14 16  2  0  0  0  0
 16 17  1  0  0  0  0
 17 18  1  0  0  0  0
 17 19  2  0  0  0  0
 12 19  1  0  0  0  0
 10 20  1  0  0  0  0
 20 21  2  0  0  0  0
 20 22  1  0  0  0  0
 23 22  1  1  0  0  0
 23 24  1  0  0  0  0
 24 25  1  0  0  0  0
 25 26  1  0  0  0  0
 26 27  2  0  0  0  0
 26 28  1  0  0  0  0
 28 29  1  0  0  0  0
 29 30  1  0  0  0  0
 30 31  1  1  0  0  0
 30 32  1  0  0  0  0
 32 33  1  0  0  0  0
 28 33  1  6  0  0  0
 33 34  1  0  0  0  0
 34 35  2  0  0  0  0
 34 36  1  0  0  0  0
 36 37  1  6  0  0  0
 36 38  1  0  0  0  0
 38 39  1  0  0  0  0
 39 40  2  0  0  0  0
 39 41  1  0  0  0  0
 41 42  1  0  0  0  0
 42 43  1  0  0  0  0
 43 44  1  0  0  0  0
 44 45  1  0  0  0  0
 45 46  1  0  0  0  0
 41 46  1  6  0  0  0
 46 47  1  0  0  0  0
 47 48  2  0  0  0  0
 47 49  1  0  0  0  0
 49 50  1  0  0  0  0
 50 51  1  0  0  0  0
 51 52  1  0  0  0  0
 52 53  1  0  0  0  0
 49 53  1  6  0  0  0
 53 54  1  0  0  0  0
 23 54  1  0  0  0  0
 54 55  2  0  0  0  0
M  END
> <Molecule Name>
CHEMBL3764224

> <IUPAC>
(2E)-N-[(1S)-2-(3,5-difluorophenyl)-1-{[(3S,9S,13S,15R,19S,22S)-15,19-dimethyl-2,8,12,18,21-pentaoxo-11-oxa-1,7,17,20-tetraazatetracyclo[20.4.0.0,.0,]hexacosan-9-yl]carbamoyl}ethyl]hept-
2-enamide

> <Collections>
Set2_NotListedAsBetaLactamResistant (mostly)

> <ChEMBL_Data_Neisseria_g: NUM_RO5_VIOLATIONS>
1

> <ChEMBL_Data_Neisseria_g: Qualifier_for_MIC_Ng>
=

> <ChEMBL_Data_Neisseria_g: ASSAY_CHEMBLID>
CHEMBL3766315

> <ChEMBL_Data_Neisseria_g: DESCRIPTION_of_Assay_Ng>
Antibacterial activity against chloramphenicol-resistant Neisseria gonorrhoeae N.279 incubated for 16 to 18 hrs by broth microdilution method

> <ChEMBL_Data_Neisseria_g: PUBMED_ID>
26818454

> <ChEMBL_Data_Neisseria_g: YEAR>
2016

> <ChEMBL_Data_Neisseria_g: JOURNAL>
J. Med. Chem.

> <ChEMBL_Data_Neisseria_g: VOLUME>
59

> <ChEMBL_Data_Neisseria_g: FIRST_PAGE>
624

> <ChEMBL_Data_Neisseria_g: MIC_vs_Neisseria_microg_per_mL>
0.125

> <ALogP>
2.92

> <Active>
1

> <Molecular_Weight>
770.862

> <ChEMBL_Data_Neisseria_g: STRAIN_of_Ng>
N.279

$$$$

Generated by Molecular Materials Informatics

 57 62  0  0  0  0  0  0  0  0999 V2000
   13.1131   12.2931    0.0000 C   0  0  0  0  0  0  0  0  0  0  0  0
   13.4429   10.8299    0.0000 C   0  0  0  0  0  0  0  0  0  0  0  0
   14.8749   10.3837    0.0000 C   0  0  0  0  0  0  0  0  0  0  0  0
   15.2047    8.9204    0.0000 C   0  0  0  0  0  0  0  0  0  0  0  0
   14.1024    7.9032    0.0000 C   0  0  0  0  0  0  0  0  0  0  0  0
   12.6702    8.3493    0.0000 C   0  0  0  0  0  0  0  0  0  0  0  0
   11.5678    7.3321    0.0000 C   0  0  0  0  0  0  0  0  0  0  0  0
   12.9455    6.7388    0.0000 O   0  0  0  0  0  0  0  0  0  0  0  0
   10.1357    7.7783    0.0000 N   0  0  0  0  0  0  0  0  0  0  0  0
    9.0333    6.7610    0.0000 C   0  0  0  0  0  0  0  0  0  0  0  0
    9.3629    5.2977    0.0000 C   0  0  0  0  0  0  0  0  0  0  0  0
   10.5871    4.4308    0.0000 C   0  0  0  0  0  0  0  0  0  0  0  0
   10.6055    2.9310    0.0000 C   0  0  0  0  0  0  0  0  0  0  0  0
   12.0376    2.4850    0.0000 S   0  0  0  0  0  0  0  0  0  0  0  0
   12.9044    3.7092    0.0000 C   0  0  0  0  0  0  0  0  0  0  0  0
   14.3942    3.8841    0.0000 C   0  0  0  0  0  0  0  0  0  0  0  0
   14.9874    5.2617    0.0000 C   0  0  0  0  0  0  0  0  0  0  0  0
   14.0911    6.4644    0.0000 C   0  0  0  0  0  0  0  0  0  0  0  0
   12.6013    6.2894    0.0000 C   0  0  0  0  0  0  0  0  0  0  0  0
   12.0080    4.9117    0.0000 C   0  0  0  0  0  0  0  0  0  0  0  0
    7.6011    7.2072    0.0000 C   0  0  0  0  0  0  0  0  0  0  0  0
    7.2715    8.6704    0.0000 O   0  0  0  0  0  0  0  0  0  0  0  0
    6.4988    6.1899    0.0000 N   0  0  0  0  0  0  0  0  0  0  0  0
    6.8286    4.7266    0.0000 C   0  0  0  0  0  0  0  0  0  0  0  0
    8.2606    4.2805    0.0000 C   0  0  0  0  0  0  0  0  0  0  0  0
    8.5904    2.8172    0.0000 O   0  0  0  0  0  0  0  0  0  0  0  0
   10.0226    2.3712    0.0000 C   0  0  0  0  0  0  0  0  0  0  0  0
   11.4935    2.0772    0.0000 O   0  0  0  0  0  0  0  0  0  0  0  0
   10.3522    0.9078    0.0000 C   0  0  0  0  0  0  0  0  0  0  0  0
   11.6604    0.1738    0.0000 C   0  0  0  0  0  0  0  0  0  0  0  0
   11.3664   -1.2971    0.0000 C   0  0  0  0  0  0  0  0  0  0  0  0
   12.3836   -2.3995    0.0000 C   0  0  0  0  0  0  0  0  0  0  0  0
    9.8766   -1.4722    0.0000 C   0  0  0  0  0  0  0  0  0  0  0  0
    9.2499   -0.1093    0.0000 N   0  0  0  0  0  0  0  0  0  0  0  0
    7.8177    0.3367    0.0000 C   0  0  0  0  0  0  0  0  0  0  0  0
    7.4881    1.7999    0.0000 O   0  0  0  0  0  0  0  0  0  0  0  0
    6.7153   -0.6804    0.0000 C   0  0  0  0  0  0  0  0  0  0  0  0
    7.0451   -2.1438    0.0000 C   0  0  0  0  0  0  0  0  0  0  0  0
    5.9426   -3.1609    0.0000 C   0  0  0  0  0  0  0  0  0  0  0  0
    5.2832   -0.2344    0.0000 N   0  0  0  0  0  0  0  0  0  0  0  0
    4.1808   -1.2517    0.0000 C   0  0  0  0  0  0  0  0  0  0  0  0
    4.5106   -2.7149    0.0000 O   0  0  0  0  0  0  0  0  0  0  0  0
    2.7486   -0.8055    0.0000 C   0  0  0  0  0  0  0  0  0  0  0  0
    1.6463   -1.8227    0.0000 C   0  0  0  0  0  0  0  0  0  0  0  0
    0.2143   -1.3766    0.0000 C   0  0  0  0  0  0  0  0  0  0  0  0
   -0.1155    0.0867    0.0000 C   0  0  0  0  0  0  0  0  0  0  0  0
    0.9868    1.1040    0.0000 C   0  0  0  0  0  0  0  0  0  0  0  0
    2.4190    0.6578    0.0000 N   0  0  0  0  0  0  0  0  0  0  0  0
    3.5214    1.6750    0.0000 C   0  0  0  0  0  0  0  0  0  0  0  0
    4.9535    1.2289    0.0000 O   0  0  0  0  0  0  0  0  0  0  0  0
    3.1916    3.1383    0.0000 C   0  0  0  0  0  0  0  0  0  0  0  0
    1.8836    3.8725    0.0000 C   0  0  0  0  0  0  0  0  0  0  0  0
    2.1776    5.3434    0.0000 C   0  0  0  0  0  0  0  0  0  0  0  0
    3.6672    5.5183    0.0000 C   0  0  0  0  0  0  0  0  0  0  0  0
    4.2941    4.1556    0.0000 N   0  0  0  0  0  0  0  0  0  0  0  0
    5.7261    3.7094    0.0000 C   0  0  0  0  0  0  0  0  0  0  0  0
    6.0559    2.2461    0.0000 O   0  0  0  0  0  0  0  0  0  0  0  0
  1  2  1  0  0  0  0
  2  3  1  0  0  0  0
  3  4  1  0  0  0  0
  4  5  1  0  0  0  0
  5  6  2  0  0  0  0
  6  7  1  0  0  0  0
  7  8  2  0  0  0  0
  7  9  1  0  0  0  0
 10  9  1  1  0  0  0
 10 11  1  0  0  0  0
 11 12  1  0  0  0  0
 12 13  2  0  0  0  0
 13 14  1  0  0  0  0
 14 15  1  0  0  0  0
 15 16  2  0  0  0  0
 16 17  1  0  0  0  0
 17 18  2  0  0  0  0
 18 19  1  0  0  0  0
 19 20  2  0  0  0  0
 12 20  1  0  0  0  0
 15 20  1  0  0  0  0
 10 21  1  0  0  0  0
 21 22  2  0  0  0  0
 21 23  1  0  0  0  0
 24 23  1  1  0  0  0
 24 25  1  0  0  0  0
 25 26  1  0  0  0  0
 26 27  1  0  0  0  0
 27 28  2  0  0  0  0
 27 29  1  0  0  0  0
 29 30  1  0  0  0  0
 30 31  1  0  0  0  0
 31 32  1  1  0  0  0
 31 33  1  0  0  0  0
 33 34  1  0  0  0  0
 29 34  1  6  0  0  0
 34 35  1  0  0  0  0
 35 36  2  0  0  0  0
 35 37  1  0  0  0  0
 37 38  1  6  0  0  0
 38 39  1  0  0  0  0
 37 40  1  0  0  0  0
 40 41  1  0  0  0  0
 41 42  2  0  0  0  0
 41 43  1  0  0  0  0
 43 44  1  0  0  0  0
 44 45  1  0  0  0  0
 45 46  1  0  0  0  0
 46 47  1  0  0  0  0
 47 48  1  0  0  0  0
 43 48  1  6  0  0  0
 48 49  1  0  0  0  0
 49 50  2  0  0  0  0
 49 51  1  0  0  0  0
 51 52  1  0  0  0  0
 52 53  1  0  0  0  0
 53 54  1  0  0  0  0
 54 55  1  0  0  0  0
 51 55  1  6  0  0  0
 55 56  1  0  0  0  0
 24 56  1  0  0  0  0
 56 57  2  0  0  0  0
M  END
> <Molecule Name>
CHEMBL3764199

> <IUPAC>
(2E)-N-[(1S)-2-(1-benzothiophen-3-yl)-1-{[(3S,9S,13S,15R,19S,22S)-19-ethyl-15-methyl-2,8,12,18,21-pentaoxo-11-oxa-1,7,17,20-tetraazatetracyclo[20.4.0.0,.0,]hexacosan-9-yl]carbamoyl}ethyl
]hept-2-enamide

> <Collections>
Set2_NotListedAsBetaLactamResistant (mostly)

> <ChEMBL_Data_Neisseria_g: NUM_RO5_VIOLATIONS>
1

> <ChEMBL_Data_Neisseria_g: Qualifier_for_MIC_Ng>
>

> <ChEMBL_Data_Neisseria_g: ASSAY_CHEMBLID>
CHEMBL3766315

> <ChEMBL_Data_Neisseria_g: DESCRIPTION_of_Assay_Ng>
Antibacterial activity against chloramphenicol-resistant Neisseria gonorrhoeae N.279 incubated for 16 to 18 hrs by broth microdilution method

> <ChEMBL_Data_Neisseria_g: PUBMED_ID>
26818454

> <ChEMBL_Data_Neisseria_g: YEAR>
2016

> <ChEMBL_Data_Neisseria_g: JOURNAL>
J. Med. Chem.

> <ChEMBL_Data_Neisseria_g: VOLUME>
59

> <ChEMBL_Data_Neisseria_g: FIRST_PAGE>
624

> <ChEMBL_Data_Neisseria_g: MIC_vs_Neisseria_microg_per_mL>
128

> <ALogP>
3.894

> <Active>
0

> <Molecular_Weight>
804.994

> <ChEMBL_Data_Neisseria_g: STRAIN_of_Ng>
N.279

$$$$

Generated by Molecular Materials Informatics

 57 61  0  0  0  0  0  0  0  0999 V2000
   -1.4096   13.7629    0.0000 C   0  0  0  0  0  0  0  0  0  0  0  0
    0.0225   13.3167    0.0000 C   0  0  0  0  0  0  0  0  0  0  0  0
    0.3522   11.8534    0.0000 C   0  0  0  0  0  0  0  0  0  0  0  0
    1.7843   11.4072    0.0000 C   0  0  0  0  0  0  0  0  0  0  0  0
    2.1141    9.9440    0.0000 C   0  0  0  0  0  0  0  0  0  0  0  0
    3.5461    9.4980    0.0000 C   0  0  0  0  0  0  0  0  0  0  0  0
    3.8759    8.0347    0.0000 C   0  0  0  0  0  0  0  0  0  0  0  0
    5.3081    7.5886    0.0000 C   0  0  0  0  0  0  0  0  0  0  0  0
    6.4105    8.6058    0.0000 O   0  0  0  0  0  0  0  0  0  0  0  0
    5.6377    6.1253    0.0000 N   0  0  0  0  0  0  0  0  0  0  0  0
    7.0699    5.6791    0.0000 C   0  0  0  0  0  0  0  0  0  0  0  0
    8.1723    6.6964    0.0000 C   0  0  0  0  0  0  0  0  0  0  0  0
    9.6044    6.2502    0.0000 C   0  0  0  0  0  0  0  0  0  0  0  0
   10.7068    7.2675    0.0000 C   0  0  0  0  0  0  0  0  0  0  0  0
   12.1389    6.8215    0.0000 C   0  0  0  0  0  0  0  0  0  0  0  0
   13.2413    7.8385    0.0000 F   0  0  0  0  0  0  0  0  0  0  0  0
   12.4686    5.3580    0.0000 C   0  0  0  0  0  0  0  0  0  0  0  0
   11.3662    4.3410    0.0000 C   0  0  0  0  0  0  0  0  0  0  0  0
   11.6960    2.8777    0.0000 F   0  0  0  0  0  0  0  0  0  0  0  0
    9.9341    4.7869    0.0000 C   0  0  0  0  0  0  0  0  0  0  0  0
    7.3997    4.2159    0.0000 C   0  0  0  0  0  0  0  0  0  0  0  0
    5.9099    4.0410    0.0000 O   0  0  0  0  0  0  0  0  0  0  0  0
    8.8317    3.7699    0.0000 N   0  0  0  0  0  0  0  0  0  0  0  0
    9.1615    2.3064    0.0000 C   0  0  0  0  0  0  0  0  0  0  0  0
   10.5937    1.8604    0.0000 C   0  0  0  0  0  0  0  0  0  0  0  0
   12.0833    2.0353    0.0000 C   0  0  0  0  0  0  0  0  0  0  0  0
   10.9233    0.3972    0.0000 O   0  0  0  0  0  0  0  0  0  0  0  0
   12.3555   -0.0490    0.0000 C   0  0  0  0  0  0  0  0  0  0  0  0
   13.4578    0.9683    0.0000 O   0  0  0  0  0  0  0  0  0  0  0  0
   12.6851   -1.5123    0.0000 C   0  0  0  0  0  0  0  0  0  0  0  0
   13.9933   -2.2464    0.0000 C   0  0  0  0  0  0  0  0  0  0  0  0
   13.6993   -3.7173    0.0000 C   0  0  0  0  0  0  0  0  0  0  0  0
   14.7165   -4.8197    0.0000 C   0  0  0  0  0  0  0  0  0  0  0  0
   12.2095   -3.8922    0.0000 C   0  0  0  0  0  0  0  0  0  0  0  0
   11.5828   -2.5295    0.0000 N   0  0  0  0  0  0  0  0  0  0  0  0
   10.1506   -2.0833    0.0000 C   0  0  0  0  0  0  0  0  0  0  0  0
    9.8210   -0.6201    0.0000 O   0  0  0  0  0  0  0  0  0  0  0  0
    9.0482   -3.1006    0.0000 C   0  0  0  0  0  0  0  0  0  0  0  0
    9.3781   -4.5639    0.0000 C   0  0  0  0  0  0  0  0  0  0  0  0
    7.6163   -2.6544    0.0000 N   0  0  0  0  0  0  0  0  0  0  0  0
    6.5137   -3.6717    0.0000 C   0  0  0  0  0  0  0  0  0  0  0  0
    6.8435   -5.1350    0.0000 O   0  0  0  0  0  0  0  0  0  0  0  0
    5.0817   -3.2257    0.0000 C   0  0  0  0  0  0  0  0  0  0  0  0
    3.9794   -4.2428    0.0000 C   0  0  0  0  0  0  0  0  0  0  0  0
    2.5472   -3.7968    0.0000 C   0  0  0  0  0  0  0  0  0  0  0  0
    2.2174   -2.3333    0.0000 C   0  0  0  0  0  0  0  0  0  0  0  0
    3.3198   -1.3163    0.0000 C   0  0  0  0  0  0  0  0  0  0  0  0
    4.7519   -1.7623    0.0000 N   0  0  0  0  0  0  0  0  0  0  0  0
    5.8543   -0.7452    0.0000 C   0  0  0  0  0  0  0  0  0  0  0  0
    7.2864   -1.1912    0.0000 O   0  0  0  0  0  0  0  0  0  0  0  0
    5.5246    0.7183    0.0000 C   0  0  0  0  0  0  0  0  0  0  0  0
    4.2165    1.4523    0.0000 C   0  0  0  0  0  0  0  0  0  0  0  0
    4.5105    2.9231    0.0000 C   0  0  0  0  0  0  0  0  0  0  0  0
    6.0003    3.0982    0.0000 C   0  0  0  0  0  0  0  0  0  0  0  0
    6.6270    1.7353    0.0000 N   0  0  0  0  0  0  0  0  0  0  0  0
    8.0592    1.2893    0.0000 C   0  0  0  0  0  0  0  0  0  0  0  0
    8.3888   -0.1739    0.0000 O   0  0  0  0  0  0  0  0  0  0  0  0
  1  2  1  0  0  0  0
  2  3  1  0  0  0  0
  3  4  1  0  0  0  0
  4  5  2  0  0  0  0
  5  6  1  0  0  0  0
  6  7  2  0  0  0  0
  7  8  1  0  0  0  0
  8  9  2  0  0  0  0
  8 10  1  0  0  0  0
 11 10  1  1  0  0  0
 11 12  1  0  0  0  0
 12 13  1  0  0  0  0
 13 14  2  0  0  0  0
 14 15  1  0  0  0  0
 15 16  1  0  0  0  0
 15 17  2  0  0  0  0
 17 18  1  0  0  0  0
 18 19  1  0  0  0  0
 18 20  2  0  0  0  0
 13 20  1  0  0  0  0
 11 21  1  0  0  0  0
 21 22  2  0  0  0  0
 21 23  1  0  0  0  0
 24 23  1  1  0  0  0
 24 25  1  0  0  0  0
 25 26  1  6  0  0  0
 25 27  1  0  0  0  0
 27 28  1  0  0  0  0
 28 29  2  0  0  0  0
 28 30  1  0  0  0  0
 30 31  1  0  0  0  0
 31 32  1  0  0  0  0
 32 33  1  1  0  0  0
 32 34  1  0  0  0  0
 34 35  1  0  0  0  0
 30 35  1  6  0  0  0
 35 36  1  0  0  0  0
 36 37  2  0  0  0  0
 36 38  1  0  0  0  0
 38 39  1  6  0  0  0
 38 40  1  0  0  0  0
 40 41  1  0  0  0  0
 41 42  2  0  0  0  0
 41 43  1  0  0  0  0
 43 44  1  0  0  0  0
 44 45  1  0  0  0  0
 45 46  1  0  0  0  0
 46 47  1  0  0  0  0
 47 48  1  0  0  0  0
 43 48  1  6  0  0  0
 48 49  1  0  0  0  0
 49 50  2  0  0  0  0
 49 51  1  0  0  0  0
 51 52  1  0  0  0  0
 52 53  1  0  0  0  0
 53 54  1  0  0  0  0
 54 55  1  0  0  0  0
 51 55  1  6  0  0  0
 55 56  1  0  0  0  0
 24 56  1  0  0  0  0
 56 57  2  0  0  0  0
M  END
> <Molecule Name>
CHEMBL3763937

> <IUPAC>
(2E,4E)-N-[(1S)-2-(3,5-difluorophenyl)-1-{[(3S,9S,10S,13S,15R,19S,22S)-10,15,19-trimethyl-2,8,12,18,21-pentaoxo-11-oxa-1,7,17,20-tetraazatetracyclo[20.4.0.0,.0,]hexacosan-9-yl]carbamoyl}
ethyl]octa-2,4-dienamide

> <Collections>
Set2_NotListedAsBetaLactamResistant (mostly)

> <ChEMBL_Data_Neisseria_g: NUM_RO5_VIOLATIONS>
1

> <ChEMBL_Data_Neisseria_g: Qualifier_for_MIC_Ng>
=

> <ChEMBL_Data_Neisseria_g: ASSAY_CHEMBLID>
CHEMBL3766315

> <ChEMBL_Data_Neisseria_g: DESCRIPTION_of_Assay_Ng>
Antibacterial activity against chloramphenicol-resistant Neisseria gonorrhoeae N.279 incubated for 16 to 18 hrs by broth microdilution method

> <ChEMBL_Data_Neisseria_g: PUBMED_ID>
26818454

> <ChEMBL_Data_Neisseria_g: YEAR>
2016

> <ChEMBL_Data_Neisseria_g: JOURNAL>
J. Med. Chem.

> <ChEMBL_Data_Neisseria_g: VOLUME>
59

> <ChEMBL_Data_Neisseria_g: FIRST_PAGE>
624

> <ChEMBL_Data_Neisseria_g: MIC_vs_Neisseria_microg_per_mL>
0.0078

> <ALogP>
3.309

> <Active>
1

> <Molecular_Weight>
796.9

> <ChEMBL_Data_Neisseria_g: STRAIN_of_Ng>
N.279

$$$$

Generated by Molecular Materials Informatics

 59 63  0  0  0  0  0  0  0  0999 V2000
   19.1610    8.2312    0.0000 C   0  0  0  0  0  0  0  0  0  0  0  0
   17.7288    8.6774    0.0000 C   0  0  0  0  0  0  0  0  0  0  0  0
   16.6265    7.6601    0.0000 C   0  0  0  0  0  0  0  0  0  0  0  0
   15.1943    8.1063    0.0000 C   0  0  0  0  0  0  0  0  0  0  0  0
   14.0920    7.0891    0.0000 C   0  0  0  0  0  0  0  0  0  0  0  0
   12.6598    7.5352    0.0000 C   0  0  0  0  0  0  0  0  0  0  0  0
   11.2174    5.9800    0.0000 C   0  0  0  0  0  0  0  0  0  0  0  0
   11.5471    4.5167    0.0000 O   0  0  0  0  0  0  0  0  0  0  0  0
   10.1253    6.9640    0.0000 N   0  0  0  0  0  0  0  0  0  0  0  0
    9.0229    5.9469    0.0000 C   0  0  0  0  0  0  0  0  0  0  0  0
    9.3527    4.4836    0.0000 C   0  0  0  0  0  0  0  0  0  0  0  0
   10.7847    4.0374    0.0000 C   0  0  0  0  0  0  0  0  0  0  0  0
   11.8873    5.0547    0.0000 C   0  0  0  0  0  0  0  0  0  0  0  0
   11.5574    6.5180    0.0000 F   0  0  0  0  0  0  0  0  0  0  0  0
   13.3192    4.6085    0.0000 C   0  0  0  0  0  0  0  0  0  0  0  0
   14.4218    5.6258    0.0000 F   0  0  0  0  0  0  0  0  0  0  0  0
   13.6491    3.1453    0.0000 C   0  0  0  0  0  0  0  0  0  0  0  0
   15.0812    2.6991    0.0000 F   0  0  0  0  0  0  0  0  0  0  0  0
   12.5467    2.1280    0.0000 C   0  0  0  0  0  0  0  0  0  0  0  0
   12.2343    0.6609    0.0000 F   0  0  0  0  0  0  0  0  0  0  0  0
   11.4545    3.1120    0.0000 C   0  0  0  0  0  0  0  0  0  0  0  0
   10.5500    1.2169    0.0000 F   0  0  0  0  0  0  0  0  0  0  0  0
    7.5908    6.3929    0.0000 C   0  0  0  0  0  0  0  0  0  0  0  0
    7.2611    7.8561    0.0000 O   0  0  0  0  0  0  0  0  0  0  0  0
    6.4884    5.3758    0.0000 N   0  0  0  0  0  0  0  0  0  0  0  0
    6.8182    3.9124    0.0000 C   0  0  0  0  0  0  0  0  0  0  0  0
    8.2504    3.4664    0.0000 C   0  0  0  0  0  0  0  0  0  0  0  0
    8.5800    2.0031    0.0000 O   0  0  0  0  0  0  0  0  0  0  0  0
   10.0122    1.5569    0.0000 C   0  0  0  0  0  0  0  0  0  0  0  0
   11.1145    2.5742    0.0000 O   0  0  0  0  0  0  0  0  0  0  0  0
   10.3418    0.0937    0.0000 C   0  0  0  0  0  0  0  0  0  0  0  0
   11.6500   -0.6405    0.0000 C   0  0  0  0  0  0  0  0  0  0  0  0
   11.3560   -2.1114    0.0000 C   0  0  0  0  0  0  0  0  0  0  0  0
   12.3732   -3.2138    0.0000 C   0  0  0  0  0  0  0  0  0  0  0  0
    9.8662   -2.2863    0.0000 C   0  0  0  0  0  0  0  0  0  0  0  0
    9.2395   -0.9236    0.0000 N   0  0  0  0  0  0  0  0  0  0  0  0
    7.8073   -0.4774    0.0000 C   0  0  0  0  0  0  0  0  0  0  0  0
    7.4777    0.9858    0.0000 O   0  0  0  0  0  0  0  0  0  0  0  0
    6.7049   -1.4947    0.0000 C   0  0  0  0  0  0  0  0  0  0  0  0
    7.0348   -2.9579    0.0000 C   0  0  0  0  0  0  0  0  0  0  0  0
    5.9324   -3.9752    0.0000 C   0  0  0  0  0  0  0  0  0  0  0  0
    5.2730   -1.0485    0.0000 N   0  0  0  0  0  0  0  0  0  0  0  0
    4.1704   -2.0658    0.0000 C   0  0  0  0  0  0  0  0  0  0  0  0
    4.5002   -3.5290    0.0000 O   0  0  0  0  0  0  0  0  0  0  0  0
    2.7384   -1.6198    0.0000 C   0  0  0  0  0  0  0  0  0  0  0  0
    1.6361   -2.6368    0.0000 C   0  0  0  0  0  0  0  0  0  0  0  0
    0.2039   -2.1909    0.0000 C   0  0  0  0  0  0  0  0  0  0  0  0
   -0.1259   -0.7274    0.0000 C   0  0  0  0  0  0  0  0  0  0  0  0
    0.9765    0.2897    0.0000 C   0  0  0  0  0  0  0  0  0  0  0  0
    2.4086   -0.1563    0.0000 N   0  0  0  0  0  0  0  0  0  0  0  0
    3.5110    0.8608    0.0000 C   0  0  0  0  0  0  0  0  0  0  0  0
    4.9431    0.4148    0.0000 O   0  0  0  0  0  0  0  0  0  0  0  0
    3.1813    2.3242    0.0000 C   0  0  0  0  0  0  0  0  0  0  0  0
    1.8732    3.0582    0.0000 C   0  0  0  0  0  0  0  0  0  0  0  0
    2.1672    4.5291    0.0000 C   0  0  0  0  0  0  0  0  0  0  0  0
    3.6570    4.7042    0.0000 C   0  0  0  0  0  0  0  0  0  0  0  0
    4.2837    3.3413    0.0000 N   0  0  0  0  0  0  0  0  0  0  0  0
    5.7159    2.8953    0.0000 C   0  0  0  0  0  0  0  0  0  0  0  0
    6.0455    1.4320    0.0000 O   0  0  0  0  0  0  0  0  0  0  0  0
  1  2  1  0  0  0  0
  2  3  1  0  0  0  0
  3  4  1  0  0  0  0
  4  5  1  0  0  0  0
  5  6  2  0  0  0  0
  6  7  1  0  0  0  0
  7  8  2  0  0  0  0
  7  9  1  0  0  0  0
 10  9  1  1  0  0  0
 10 11  1  0  0  0  0
 11 12  1  0  0  0  0
 12 13  2  0  0  0  0
 13 14  1  0  0  0  0
 13 15  1  0  0  0  0
 15 16  1  0  0  0  0
 15 17  2  0  0  0  0
 17 18  1  0  0  0  0
 17 19  1  0  0  0  0
 19 20  1  0  0  0  0
 19 21  2  0  0  0  0
 12 21  1  0  0  0  0
 21 22  1  0  0  0  0
 10 23  1  0  0  0  0
 23 24  2  0  0  0  0
 23 25  1  0  0  0  0
 26 25  1  1  0  0  0
 26 27  1  0  0  0  0
 27 28  1  0  0  0  0
 28 29  1  0  0  0  0
 29 30  2  0  0  0  0
 29 31  1  0  0  0  0
 31 32  1  0  0  0  0
 32 33  1  0  0  0  0
 33 34  1  1  0  0  0
 33 35  1  0  0  0  0
 35 36  1  0  0  0  0
 31 36  1  6  0  0  0
 36 37  1  0  0  0  0
 37 38  2  0  0  0  0
 37 39  1  0  0  0  0
 39 40  1  6  0  0  0
 40 41  1  0  0  0  0
 39 42  1  0  0  0  0
 42 43  1  0  0  0  0
 43 44  2  0  0  0  0
 43 45  1  0  0  0  0
 45 46  1  0  0  0  0
 46 47  1  0  0  0  0
 47 48  1  0  0  0  0
 48 49  1  0  0  0  0
 49 50  1  0  0  0  0
 45 50  1  6  0  0  0
 50 51  1  0  0  0  0
 51 52  2  0  0  0  0
 51 53  1  0  0  0  0
 53 54  1  0  0  0  0
 54 55  1  0  0  0  0
 55 56  1  0  0  0  0
 56 57  1  0  0  0  0
 53 57  1  6  0  0  0
 57 58  1  0  0  0  0
 26 58  1  0  0  0  0
 58 59  2  0  0  0  0
M  END
> <Molecule Name>
CHEMBL3763704

> <IUPAC>
(2E)-N-[(1S)-1-{[(3S,9S,13S,15R,19S,22S)-19-ethyl-15-methyl-2,8,12,18,21-pentaoxo-11-oxa-1,7,17,20-tetraazatetracyclo[20.4.0.0,.0,]hexacosan-9-yl]carbamoyl}-2-(2,3,4,5,6-pentafluoropheny
l)ethyl]hept-2-enamide

> <Collections>
Set2_NotListedAsBetaLactamResistant (mostly)

> <ChEMBL_Data_Neisseria_g: NUM_RO5_VIOLATIONS>
1

> <ChEMBL_Data_Neisseria_g: Qualifier_for_MIC_Ng>
=

> <ChEMBL_Data_Neisseria_g: ASSAY_CHEMBLID>
CHEMBL3766315

> <ChEMBL_Data_Neisseria_g: DESCRIPTION_of_Assay_Ng>
Antibacterial activity against chloramphenicol-resistant Neisseria gonorrhoeae N.279 incubated for 16 to 18 hrs by broth microdilution method

> <ChEMBL_Data_Neisseria_g: PUBMED_ID>
26818454

> <ChEMBL_Data_Neisseria_g: YEAR>
2016

> <ChEMBL_Data_Neisseria_g: JOURNAL>
J. Med. Chem.

> <ChEMBL_Data_Neisseria_g: VOLUME>
59

> <ChEMBL_Data_Neisseria_g: FIRST_PAGE>
624

> <ChEMBL_Data_Neisseria_g: MIC_vs_Neisseria_microg_per_mL>
32

> <ALogP>
4.06

> <Active>
0

> <Molecular_Weight>
838.86

> <ChEMBL_Data_Neisseria_g: STRAIN_of_Ng>
N.279

$$$$

Generated by Molecular Materials Informatics

 59 63  0  0  0  0  0  0  0  0999 V2000
   11.0380   -0.7687    0.0000 C   0  0  0  0  0  0  0  0  0  0  0  0
    9.5380   -0.7687    0.0000 C   0  0  0  0  0  0  0  0  0  0  0  0
    8.6561    0.4447    0.0000 C   0  0  0  0  0  0  0  0  0  0  0  0
    7.2296   -0.0187    0.0000 C   0  0  0  0  0  0  0  0  0  0  0  0
    7.2296   -1.5187    0.0000 N   0  0  0  0  0  0  0  0  0  0  0  0
    8.6561   -1.9822    0.0000 C   0  0  0  0  0  0  0  0  0  0  0  0
    5.9307   -2.2688    0.0000 C   0  0  0  0  0  0  0  0  0  0  0  0
    4.6316   -1.5187    0.0000 O   0  0  0  0  0  0  0  0  0  0  0  0
    5.9307   -3.7688    0.0000 C   0  0  0  0  0  0  0  0  0  0  0  0
    7.2296   -4.5187    0.0000 C   0  0  0  0  0  0  0  0  0  0  0  0
    4.6316   -4.5187    0.0000 N   0  0  0  0  0  0  0  0  0  0  0  0
    3.3325   -3.7688    0.0000 C   0  0  0  0  0  0  0  0  0  0  0  0
    3.3325   -2.2688    0.0000 O   0  0  0  0  0  0  0  0  0  0  0  0
    2.0334   -4.5187    0.0000 C   0  0  0  0  0  0  0  0  0  0  0  0
    2.0334   -6.0187    0.0000 C   0  0  0  0  0  0  0  0  0  0  0  0
    0.7345   -6.7688    0.0000 C   0  0  0  0  0  0  0  0  0  0  0  0
   -0.5646   -6.0187    0.0000 C   0  0  0  0  0  0  0  0  0  0  0  0
   -0.5646   -4.5187    0.0000 C   0  0  0  0  0  0  0  0  0  0  0  0
    0.7345   -3.7688    0.0000 N   0  0  0  0  0  0  0  0  0  0  0  0
    0.7345   -2.2688    0.0000 C   0  0  0  0  0  0  0  0  0  0  0  0
    2.0334   -1.5187    0.0000 O   0  0  0  0  0  0  0  0  0  0  0  0
   -0.5646   -1.5187    0.0000 C   0  0  0  0  0  0  0  0  0  0  0  0
   -1.9911   -1.9822    0.0000 C   0  0  0  0  0  0  0  0  0  0  0  0
   -2.8728   -0.7687    0.0000 C   0  0  0  0  0  0  0  0  0  0  0  0
   -1.9911    0.4447    0.0000 C   0  0  0  0  0  0  0  0  0  0  0  0
   -0.5646   -0.0187    0.0000 N   0  0  0  0  0  0  0  0  0  0  0  0
    0.7345    0.7313    0.0000 C   0  0  0  0  0  0  0  0  0  0  0  0
   -0.1473    1.9447    0.0000 O   0  0  0  0  0  0  0  0  0  0  0  0
    2.0334   -0.0187    0.0000 C   0  0  0  0  0  0  0  0  0  0  0  0
    2.0334    1.4813    0.0000 N   0  0  0  0  0  0  0  0  0  0  0  0
    0.7345    2.2313    0.0000 C   0  0  0  0  0  0  0  0  0  0  0  0
   -0.7573    2.3880    0.0000 O   0  0  0  0  0  0  0  0  0  0  0  0
    0.7345    3.7313    0.0000 C   0  0  0  0  0  0  0  0  0  0  0  0
    2.0334    4.4812    0.0000 C   0  0  0  0  0  0  0  0  0  0  0  0
    2.0334    5.9812    0.0000 C   0  0  0  0  0  0  0  0  0  0  0  0
    0.7345    6.7312    0.0000 C   0  0  0  0  0  0  0  0  0  0  0  0
    0.7345    8.2313    0.0000 C   0  0  0  0  0  0  0  0  0  0  0  0
   -0.5646    8.9813    0.0000 F   0  0  0  0  0  0  0  0  0  0  0  0
    2.0334    8.9813    0.0000 C   0  0  0  0  0  0  0  0  0  0  0  0
    3.3325    8.2313    0.0000 C   0  0  0  0  0  0  0  0  0  0  0  0
    4.6316    8.9813    0.0000 F   0  0  0  0  0  0  0  0  0  0  0  0
    3.3325    6.7312    0.0000 C   0  0  0  0  0  0  0  0  0  0  0  0
   -0.5646    4.4812    0.0000 N   0  0  0  0  0  0  0  0  0  0  0  0
   -0.5646    5.9812    0.0000 C   0  0  0  0  0  0  0  0  0  0  0  0
    0.0456    7.3516    0.0000 O   0  0  0  0  0  0  0  0  0  0  0  0
   -1.8637    6.7312    0.0000 C   0  0  0  0  0  0  0  0  0  0  0  0
   -1.8637    8.2313    0.0000 C   0  0  0  0  0  0  0  0  0  0  0  0
   -3.1626    8.9813    0.0000 C   0  0  0  0  0  0  0  0  0  0  0  0
   -4.4617    8.2313    0.0000 C   0  0  0  0  0  0  0  0  0  0  0  0
   -5.7608    8.9813    0.0000 C   0  0  0  0  0  0  0  0  0  0  0  0
   -7.0599    8.2313    0.0000 C   0  0  0  0  0  0  0  0  0  0  0  0
   -8.3588    8.9813    0.0000 C   0  0  0  0  0  0  0  0  0  0  0  0
   -9.6579    8.2313    0.0000 O   0  0  0  0  0  0  0  0  0  0  0  0
   -8.3588   10.4812    0.0000 O   0  0  0  0  0  0  0  0  0  0  0  0
    3.3325    0.7313    0.0000 C   0  0  0  0  0  0  0  0  0  0  0  0
    3.3325    2.2313    0.0000 C   0  0  0  0  0  0  0  0  0  0  0  0
    4.6316   -0.0187    0.0000 O   0  0  0  0  0  0  0  0  0  0  0  0
    5.9307    0.7313    0.0000 C   0  0  0  0  0  0  0  0  0  0  0  0
    5.9307    2.2313    0.0000 O   0  0  0  0  0  0  0  0  0  0  0  0
  2  1  1  1  0  0  0
  2  3  1  0  0  0  0
  3  4  1  0  0  0  0
  4  5  1  6  0  0  0
  5  6  1  0  0  0  0
  2  6  1  0  0  0  0
  5  7  1  0  0  0  0
  7  8  2  0  0  0  0
  7  9  1  0  0  0  0
  9 10  1  6  0  0  0
  9 11  1  0  0  0  0
 11 12  1  0  0  0  0
 12 13  2  0  0  0  0
 12 14  1  0  0  0  0
 14 15  1  0  0  0  0
 15 16  1  0  0  0  0
 16 17  1  0  0  0  0
 17 18  1  0  0  0  0
 18 19  1  0  0  0  0
 14 19  1  6  0  0  0
 19 20  1  0  0  0  0
 20 21  2  0  0  0  0
 20 22  1  0  0  0  0
 22 23  1  0  0  0  0
 23 24  1  0  0  0  0
 24 25  1  0  0  0  0
 25 26  1  0  0  0  0
 22 26  1  6  0  0  0
 26 27  1  0  0  0  0
 27 28  2  0  0  0  0
 27 29  1  0  0  0  0
 29 30  1  6  0  0  0
 30 31  1  0  0  0  0
 31 32  2  0  0  0  0
 31 33  1  0  0  0  0
 33 34  1  0  0  0  0
 34 35  1  0  0  0  0
 35 36  2  0  0  0  0
 36 37  1  0  0  0  0
 37 38  1  0  0  0  0
 37 39  2  0  0  0  0
 39 40  1  0  0  0  0
 40 41  1  0  0  0  0
 40 42  2  0  0  0  0
 35 42  1  0  0  0  0
 33 43  1  1  0  0  0
 43 44  1  0  0  0  0
 44 45  2  0  0  0  0
 44 46  1  0  0  0  0
 46 47  2  0  0  0  0
 47 48  1  0  0  0  0
 48 49  1  0  0  0  0
 49 50  1  0  0  0  0
 50 51  1  0  0  0  0
 51 52  1  0  0  0  0
 52 53  2  0  0  0  0
 52 54  1  0  0  0  0
 29 55  1  0  0  0  0
 55 56  1  6  0  0  0
 55 57  1  0  0  0  0
 57 58  1  0  0  0  0
  4 58  1  0  0  0  0
 58 59  2  0  0  0  0
M  END
> <Molecule Name>
CHEMBL3763637

> <IUPAC>
(6E)-7-{[(1S)-2-(3,5-difluorophenyl)-1-{[(3S,9S,10S,13S,15R,19S,22S)-10,15,19-trimethyl-2,8,12,18,21-pentaoxo-11-oxa-1,7,17,20-tetraazatetracyclo[20.4.0.0,.0,]hexacosan-9-yl]carbamoyl}et
hyl]carbamoyl}hept-6-enoic acid

> <Collections>
Set2_NotListedAsBetaLactamResistant (mostly)

> <ChEMBL_Data_Neisseria_g: NUM_RO5_VIOLATIONS>
1

> <ChEMBL_Data_Neisseria_g: Qualifier_for_MIC_Ng>
=

> <ChEMBL_Data_Neisseria_g: ASSAY_CHEMBLID>
CHEMBL3766315

> <ChEMBL_Data_Neisseria_g: DESCRIPTION_of_Assay_Ng>
Antibacterial activity against chloramphenicol-resistant Neisseria gonorrhoeae N.279 incubated for 16 to 18 hrs by broth microdilution method

> <ChEMBL_Data_Neisseria_g: PUBMED_ID>
26818454

> <ChEMBL_Data_Neisseria_g: YEAR>
2016

> <ChEMBL_Data_Neisseria_g: JOURNAL>
J. Med. Chem.

> <ChEMBL_Data_Neisseria_g: VOLUME>
59

> <ChEMBL_Data_Neisseria_g: FIRST_PAGE>
624

> <ChEMBL_Data_Neisseria_g: MIC_vs_Neisseria_microg_per_mL>
1

> <ALogP>
2.475

> <Active>
1

> <Molecular_Weight>
828.898

> <ChEMBL_Data_Neisseria_g: STRAIN_of_Ng>
N.279

$$$$

Generated by Molecular Materials Informatics

 54 57  0  0  0  0  0  0  0  0999 V2000
  -10.0999   -4.1451    0.0000 C   0  0  0  0  0  0  0  0  0  0  0  0
   -8.8008   -4.8951    0.0000 C   0  0  0  0  0  0  0  0  0  0  0  0
   -7.5018   -4.1451    0.0000 C   0  0  0  0  0  0  0  0  0  0  0  0
   -6.2029   -4.8951    0.0000 C   0  0  0  0  0  0  0  0  0  0  0  0
   -4.9038   -4.1451    0.0000 C   0  0  0  0  0  0  0  0  0  0  0  0
   -3.6047   -4.8951    0.0000 C   0  0  0  0  0  0  0  0  0  0  0  0
   -2.3057   -4.1451    0.0000 C   0  0  0  0  0  0  0  0  0  0  0  0
   -3.1875   -2.9317    0.0000 O   0  0  0  0  0  0  0  0  0  0  0  0
   -1.0068   -4.8951    0.0000 N   0  0  0  0  0  0  0  0  0  0  0  0
    0.2923   -4.1451    0.0000 C   0  0  0  0  0  0  0  0  0  0  0  0
    0.2923   -2.6452    0.0000 C   0  0  0  0  0  0  0  0  0  0  0  0
   -1.0068   -1.8952    0.0000 C   0  0  0  0  0  0  0  0  0  0  0  0
   -2.3057   -2.6452    0.0000 C   0  0  0  0  0  0  0  0  0  0  0  0
   -3.6047   -1.8952    0.0000 C   0  0  0  0  0  0  0  0  0  0  0  0
   -4.9038   -2.6452    0.0000 F   0  0  0  0  0  0  0  0  0  0  0  0
   -3.6047   -0.3952    0.0000 C   0  0  0  0  0  0  0  0  0  0  0  0
   -2.3057    0.3548    0.0000 C   0  0  0  0  0  0  0  0  0  0  0  0
   -2.3057    1.8548    0.0000 F   0  0  0  0  0  0  0  0  0  0  0  0
   -1.0068   -0.3952    0.0000 C   0  0  0  0  0  0  0  0  0  0  0  0
    1.5913   -4.8951    0.0000 C   0  0  0  0  0  0  0  0  0  0  0  0
    1.5913   -6.3951    0.0000 O   0  0  0  0  0  0  0  0  0  0  0  0
    2.8902   -4.1451    0.0000 N   0  0  0  0  0  0  0  0  0  0  0  0
    2.8902   -2.6452    0.0000 C   0  0  0  0  0  0  0  0  0  0  0  0
    1.5913   -1.8952    0.0000 C   0  0  0  0  0  0  0  0  0  0  0  0
    1.5913   -0.3952    0.0000 O   0  0  0  0  0  0  0  0  0  0  0  0
    0.2923    0.3548    0.0000 C   0  0  0  0  0  0  0  0  0  0  0  0
   -1.1995    0.5115    0.0000 O   0  0  0  0  0  0  0  0  0  0  0  0
    0.2923    1.8548    0.0000 C   0  0  0  0  0  0  0  0  0  0  0  0
   -0.8224    2.8584    0.0000 C   0  0  0  0  0  0  0  0  0  0  0  0
   -0.2123    4.2287    0.0000 C   0  0  0  0  0  0  0  0  0  0  0  0
   -0.9622    5.5278    0.0000 C   0  0  0  0  0  0  0  0  0  0  0  0
    1.2794    4.0720    0.0000 C   0  0  0  0  0  0  0  0  0  0  0  0
    1.5913    2.6047    0.0000 N   0  0  0  0  0  0  0  0  0  0  0  0
    2.8902    1.8548    0.0000 C   0  0  0  0  0  0  0  0  0  0  0  0
    2.8902    0.3548    0.0000 O   0  0  0  0  0  0  0  0  0  0  0  0
    4.1893    2.6047    0.0000 C   0  0  0  0  0  0  0  0  0  0  0  0
    4.1893    4.1047    0.0000 C   0  0  0  0  0  0  0  0  0  0  0  0
    5.4884    4.8547    0.0000 C   0  0  0  0  0  0  0  0  0  0  0  0
    5.4884    1.8548    0.0000 N   0  0  0  0  0  0  0  0  0  0  0  0
    6.7874    2.6047    0.0000 C   0  0  0  0  0  0  0  0  0  0  0  0
    6.7874    4.1047    0.0000 O   0  0  0  0  0  0  0  0  0  0  0  0
    8.0863    1.8548    0.0000 C   0  0  0  0  0  0  0  0  0  0  0  0
    9.3854    2.6047    0.0000 C   0  0  0  0  0  0  0  0  0  0  0  0
    8.0863    0.3548    0.0000 N   0  0  0  0  0  0  0  0  0  0  0  0
    9.3854   -0.3952    0.0000 C   0  0  0  0  0  0  0  0  0  0  0  0
    6.7874   -0.3952    0.0000 C   0  0  0  0  0  0  0  0  0  0  0  0
    5.4884    0.3548    0.0000 O   0  0  0  0  0  0  0  0  0  0  0  0
    6.7874   -1.8952    0.0000 C   0  0  0  0  0  0  0  0  0  0  0  0
    7.9020   -2.8988    0.0000 C   0  0  0  0  0  0  0  0  0  0  0  0
    7.2920   -4.2691    0.0000 C   0  0  0  0  0  0  0  0  0  0  0  0
    5.8002   -4.1124    0.0000 C   0  0  0  0  0  0  0  0  0  0  0  0
    5.4884   -2.6452    0.0000 N   0  0  0  0  0  0  0  0  0  0  0  0
    4.1893   -1.8952    0.0000 C   0  0  0  0  0  0  0  0  0  0  0  0
    4.1893   -0.3952    0.0000 O   0  0  0  0  0  0  0  0  0  0  0  0
  1  2  1  0  0  0  0
  2  3  1  0  0  0  0
  3  4  1  0  0  0  0
  4  5  1  0  0  0  0
  5  6  2  0  0  0  0
  6  7  1  0  0  0  0
  7  8  2  0  0  0  0
  7  9  1  0  0  0  0
 10  9  1  1  0  0  0
 10 11  1  0  0  0  0
 11 12  1  0  0  0  0
 12 13  2  0  0  0  0
 13 14  1  0  0  0  0
 14 15  1  0  0  0  0
 14 16  2  0  0  0  0
 16 17  1  0  0  0  0
 17 18  1  0  0  0  0
 17 19  2  0  0  0  0
 12 19  1  0  0  0  0
 10 20  1  0  0  0  0
 20 21  2  0  0  0  0
 20 22  1  0  0  0  0
 23 22  1  1  0  0  0
 23 24  1  0  0  0  0
 24 25  1  0  0  0  0
 25 26  1  0  0  0  0
 26 27  2  0  0  0  0
 26 28  1  0  0  0  0
 28 29  1  0  0  0  0
 29 30  1  0  0  0  0
 30 31  1  1  0  0  0
 30 32  1  0  0  0  0
 32 33  1  0  0  0  0
 28 33  1  6  0  0  0
 33 34  1  0  0  0  0
 34 35  2  0  0  0  0
 34 36  1  0  0  0  0
 36 37  1  6  0  0  0
 37 38  1  0  0  0  0
 36 39  1  0  0  0  0
 39 40  1  0  0  0  0
 40 41  2  0  0  0  0
 40 42  1  0  0  0  0
 42 43  1  6  0  0  0
 42 44  1  0  0  0  0
 44 45  1  0  0  0  0
 44 46  1  0  0  0  0
 46 47  2  0  0  0  0
 46 48  1  0  0  0  0
 48 49  1  0  0  0  0
 49 50  1  0  0  0  0
 50 51  1  0  0  0  0
 51 52  1  0  0  0  0
 48 52  1  6  0  0  0
 52 53  1  0  0  0  0
 23 53  1  0  0  0  0
 53 54  2  0  0  0  0
M  END
> <Molecule Name>
CHEMBL3763463

> <IUPAC>
(2E)-N-[(1S)-2-(3,5-difluorophenyl)-1-{[(3S,7S,9R,13S,16S,19S)-13-ethyl-9,16,17-trimethyl-2,6,12,15,18-pentaoxo-5-oxa-1,11,14,17-tetraazatricyclo[17.3.0.0,]docosan-3-yl]carbamoyl}ethyl]hept-2-e
namide

> <Collections>
Set2_NotListedAsBetaLactamResistant (mostly)

> <ChEMBL_Data_Neisseria_g: NUM_RO5_VIOLATIONS>
1

> <ChEMBL_Data_Neisseria_g: Qualifier_for_MIC_Ng>
=

> <ChEMBL_Data_Neisseria_g: ASSAY_CHEMBLID>
CHEMBL3766315

> <ChEMBL_Data_Neisseria_g: DESCRIPTION_of_Assay_Ng>
Antibacterial activity against chloramphenicol-resistant Neisseria gonorrhoeae N.279 incubated for 16 to 18 hrs by broth microdilution method

> <ChEMBL_Data_Neisseria_g: PUBMED_ID>
26818454

> <ChEMBL_Data_Neisseria_g: YEAR>
2016

> <ChEMBL_Data_Neisseria_g: JOURNAL>
J. Med. Chem.

> <ChEMBL_Data_Neisseria_g: VOLUME>
59

> <ChEMBL_Data_Neisseria_g: FIRST_PAGE>
624

> <ChEMBL_Data_Neisseria_g: MIC_vs_Neisseria_microg_per_mL>
0.0313

> <ALogP>
2.875

> <Active>
1

> <Molecular_Weight>
758.852

> <ChEMBL_Data_Neisseria_g: STRAIN_of_Ng>
N.279

$$$$

Generated by Molecular Materials Informatics

 52 55  0  0  0  0  0  0  0  0999 V2000
  -11.1065   -4.8951    0.0000 C   0  0  0  0  0  0  0  0  0  0  0  0
   -9.8077   -4.1451    0.0000 C   0  0  0  0  0  0  0  0  0  0  0  0
   -8.5086   -4.8951    0.0000 C   0  0  0  0  0  0  0  0  0  0  0  0
   -7.2095   -4.1451    0.0000 C   0  0  0  0  0  0  0  0  0  0  0  0
   -5.9106   -4.8951    0.0000 C   0  0  0  0  0  0  0  0  0  0  0  0
   -4.6116   -4.1451    0.0000 C   0  0  0  0  0  0  0  0  0  0  0  0
   -3.3125   -4.8951    0.0000 C   0  0  0  0  0  0  0  0  0  0  0  0
   -2.0134   -4.1451    0.0000 C   0  0  0  0  0  0  0  0  0  0  0  0
   -2.8952   -2.9317    0.0000 O   0  0  0  0  0  0  0  0  0  0  0  0
   -0.7145   -4.8951    0.0000 N   0  0  0  0  0  0  0  0  0  0  0  0
    0.5845   -4.1451    0.0000 C   0  0  0  0  0  0  0  0  0  0  0  0
    0.5845   -2.6452    0.0000 C   0  0  0  0  0  0  0  0  0  0  0  0
   -0.7145   -1.8952    0.0000 C   0  0  0  0  0  0  0  0  0  0  0  0
   -2.0134   -2.6452    0.0000 C   0  0  0  0  0  0  0  0  0  0  0  0
   -3.3125   -1.8952    0.0000 C   0  0  0  0  0  0  0  0  0  0  0  0
   -3.3125   -0.3952    0.0000 C   0  0  0  0  0  0  0  0  0  0  0  0
   -2.0134    0.3548    0.0000 C   0  0  0  0  0  0  0  0  0  0  0  0
   -0.7145   -0.3952    0.0000 C   0  0  0  0  0  0  0  0  0  0  0  0
    1.8836   -4.8951    0.0000 C   0  0  0  0  0  0  0  0  0  0  0  0
    1.8836   -6.3951    0.0000 O   0  0  0  0  0  0  0  0  0  0  0  0
    3.1825   -4.1451    0.0000 N   0  0  0  0  0  0  0  0  0  0  0  0
    3.1825   -2.6452    0.0000 C   0  0  0  0  0  0  0  0  0  0  0  0
    1.8836   -1.8952    0.0000 C   0  0  0  0  0  0  0  0  0  0  0  0
    1.8836   -0.3952    0.0000 O   0  0  0  0  0  0  0  0  0  0  0  0
    0.5845    0.3548    0.0000 C   0  0  0  0  0  0  0  0  0  0  0  0
   -0.9073    0.5115    0.0000 O   0  0  0  0  0  0  0  0  0  0  0  0
    0.5845    1.8548    0.0000 C   0  0  0  0  0  0  0  0  0  0  0  0
   -0.5302    2.8584    0.0000 C   0  0  0  0  0  0  0  0  0  0  0  0
    0.0800    4.2287    0.0000 C   0  0  0  0  0  0  0  0  0  0  0  0
   -0.6700    5.5278    0.0000 C   0  0  0  0  0  0  0  0  0  0  0  0
    1.5716    4.0720    0.0000 C   0  0  0  0  0  0  0  0  0  0  0  0
    1.8836    2.6048    0.0000 N   0  0  0  0  0  0  0  0  0  0  0  0
    3.1825    1.8548    0.0000 C   0  0  0  0  0  0  0  0  0  0  0  0
    3.1825    0.3548    0.0000 O   0  0  0  0  0  0  0  0  0  0  0  0
    4.4816    2.6048    0.0000 C   0  0  0  0  0  0  0  0  0  0  0  0
    4.4816    4.1047    0.0000 C   0  0  0  0  0  0  0  0  0  0  0  0
    5.7806    1.8548    0.0000 N   0  0  0  0  0  0  0  0  0  0  0  0
    7.0797    2.6048    0.0000 C   0  0  0  0  0  0  0  0  0  0  0  0
    7.0797    4.1047    0.0000 O   0  0  0  0  0  0  0  0  0  0  0  0
    8.3786    1.8548    0.0000 C   0  0  0  0  0  0  0  0  0  0  0  0
    9.6776    2.6048    0.0000 C   0  0  0  0  0  0  0  0  0  0  0  0
    8.3786    0.3548    0.0000 N   0  0  0  0  0  0  0  0  0  0  0  0
    9.6776   -0.3952    0.0000 C   0  0  0  0  0  0  0  0  0  0  0  0
    7.0797   -0.3952    0.0000 C   0  0  0  0  0  0  0  0  0  0  0  0
    5.7806    0.3548    0.0000 O   0  0  0  0  0  0  0  0  0  0  0  0
    7.0797   -1.8952    0.0000 C   0  0  0  0  0  0  0  0  0  0  0  0
    8.1942   -2.8988    0.0000 C   0  0  0  0  0  0  0  0  0  0  0  0
    7.5842   -4.2691    0.0000 C   0  0  0  0  0  0  0  0  0  0  0  0
    6.0924   -4.1124    0.0000 C   0  0  0  0  0  0  0  0  0  0  0  0
    5.7806   -2.6452    0.0000 N   0  0  0  0  0  0  0  0  0  0  0  0
    4.4816   -1.8952    0.0000 C   0  0  0  0  0  0  0  0  0  0  0  0
    4.4816   -0.3952    0.0000 O   0  0  0  0  0  0  0  0  0  0  0  0
  1  2  1  0  0  0  0
  2  3  1  0  0  0  0
  3  4  1  0  0  0  0
  4  5  2  0  0  0  0
  5  6  1  0  0  0  0
  6  7  2  0  0  0  0
  7  8  1  0  0  0  0
  8  9  2  0  0  0  0
  8 10  1  0  0  0  0
 11 10  1  1  0  0  0
 11 12  1  0  0  0  0
 12 13  1  0  0  0  0
 13 14  2  0  0  0  0
 14 15  1  0  0  0  0
 15 16  2  0  0  0  0
 16 17  1  0  0  0  0
 17 18  2  0  0  0  0
 13 18  1  0  0  0  0
 11 19  1  0  0  0  0
 19 20  2  0  0  0  0
 19 21  1  0  0  0  0
 22 21  1  1  0  0  0
 22 23  1  0  0  0  0
 23 24  1  0  0  0  0
 24 25  1  0  0  0  0
 25 26  2  0  0  0  0
 25 27  1  0  0  0  0
 27 28  1  0  0  0  0
 28 29  1  0  0  0  0
 29 30  1  1  0  0  0
 29 31  1  0  0  0  0
 31 32  1  0  0  0  0
 27 32  1  6  0  0  0
 32 33  1  0  0  0  0
 33 34  2  0  0  0  0
 33 35  1  0  0  0  0
 35 36  1  6  0  0  0
 35 37  1  0  0  0  0
 37 38  1  0  0  0  0
 38 39  2  0  0  0  0
 38 40  1  0  0  0  0
 40 41  1  6  0  0  0
 40 42  1  0  0  0  0
 42 43  1  0  0  0  0
 42 44  1  0  0  0  0
 44 45  2  0  0  0  0
 44 46  1  0  0  0  0
 46 47  1  0  0  0  0
 47 48  1  0  0  0  0
 48 49  1  0  0  0  0
 49 50  1  0  0  0  0
 46 50  1  6  0  0  0
 50 51  1  0  0  0  0
 22 51  1  0  0  0  0
 51 52  2  0  0  0  0
M  END
> <Molecule Name>
CHEMBL3342327

> <IUPAC>
(2E,4E)-N-[(1S)-2-phenyl-1-{[(3S,7S,9R,13S,16S,19S)-9,13,16,17-tetramethyl-2,6,12,15,18-pentaoxo-5-oxa-1,11,14,17-tetraazatricyclo[17.3.0.0,]docosan-3-yl]carbamoyl}ethyl]octa-2,4-dienamide

> <Collections>
Set2_NotListedAsBetaLactamResistant (mostly)

> <ChEMBL_Data_Neisseria_g: NUM_RO5_VIOLATIONS>
1

> <ChEMBL_Data_Neisseria_g: Qualifier_for_MIC_Ng>
=

> <ChEMBL_Data_Neisseria_g: ASSAY_CHEMBLID>
CHEMBL3766315

> <ChEMBL_Data_Neisseria_g: DESCRIPTION_of_Assay_Ng>
Antibacterial activity against chloramphenicol-resistant Neisseria gonorrhoeae N.279 incubated for 16 to 18 hrs by broth microdilution method

> <ChEMBL_Data_Neisseria_g: PUBMED_ID>
26818454

> <ChEMBL_Data_Neisseria_g: YEAR>
2016

> <ChEMBL_Data_Neisseria_g: JOURNAL>
J. Med. Chem.

> <ChEMBL_Data_Neisseria_g: VOLUME>
59

> <ChEMBL_Data_Neisseria_g: FIRST_PAGE>
624

> <ChEMBL_Data_Neisseria_g: MIC_vs_Neisseria_microg_per_mL>
0.0156

> <ALogP>
1.952

> <Active>
1

> <Molecular_Weight>
720.855

> <ChEMBL_Data_Neisseria_g: STRAIN_of_Ng>
N.279

$$$$

Generated by Molecular Materials Informatics

 28 28  0  0  0  0  0  0  0  0999 V2000
   -7.2567    1.0794    0.0000 C   0  0  0  0  0  0  0  0  0  0  0  0
   -6.9449   -0.3878    0.0000 N   0  0  0  0  0  0  0  0  0  0  0  0
   -5.5746   -0.9978    0.0000 C   0  0  0  0  0  0  0  0  0  0  0  0
   -4.2755   -0.2478    0.0000 S   0  0  0  0  0  0  0  0  0  0  0  0
   -2.9766   -0.9978    0.0000 C   0  0  0  0  0  0  0  0  0  0  0  0
   -1.6776   -0.2478    0.0000 C   0  0  0  0  0  0  0  0  0  0  0  0
   -0.3785   -0.9978    0.0000 C   0  0  0  0  0  0  0  0  0  0  0  0
    0.9203   -0.2478    0.0000 C   0  0  0  0  0  0  0  0  0  0  0  0
    2.2194   -0.9978    0.0000 C   0  0  0  0  0  0  0  0  0  0  0  0
    3.5184   -0.2478    0.0000 C   0  0  0  0  0  0  0  0  0  0  0  0
    4.8175   -0.9978    0.0000 C   0  0  0  0  0  0  0  0  0  0  0  0
    6.1164   -0.2478    0.0000 C   0  0  0  0  0  0  0  0  0  0  0  0
    7.4154   -0.9978    0.0000 C   0  0  0  0  0  0  0  0  0  0  0  0
    8.7145   -0.2478    0.0000 C   0  0  0  0  0  0  0  0  0  0  0  0
   10.0133   -0.9978    0.0000 C   0  0  0  0  0  0  0  0  0  0  0  0
   11.3124   -0.2478    0.0000 C   0  0  0  0  0  0  0  0  0  0  0  0
   12.6114   -0.9978    0.0000 C   0  0  0  0  0  0  0  0  0  0  0  0
   13.9105   -0.2478    0.0000 C   0  0  0  0  0  0  0  0  0  0  0  0
   15.2094   -0.9978    0.0000 C   0  0  0  0  0  0  0  0  0  0  0  0
   16.5084   -0.2478    0.0000 C   0  0  0  0  0  0  0  0  0  0  0  0
   17.8075   -0.9978    0.0000 O   0  0  0  0  0  0  0  0  0  0  0  0
   16.5084    1.2521    0.0000 O   0  0  0  0  0  0  0  0  0  0  0  0
   -5.7313   -2.4896    0.0000 N   0  0  0  0  0  0  0  0  0  0  0  0
   -7.1985   -2.8014    0.0000 C   0  0  0  0  0  0  0  0  0  0  0  0
   -7.9485   -1.5025    0.0000 C   0  0  0  0  0  0  0  0  0  0  0  0
   -9.4403   -1.3456    0.0000 N   0  3  0  0  0  0  0  0  0  0  0  0
  -10.3219   -2.5592    0.0000 O   0  0  0  0  0  0  0  0  0  0  0  0
  -10.0504    0.0247    0.0000 O   0  5  0  0  0  0  0  0  0  0  0  0
  1  2  1  0  0  0  0
  2  3  1  0  0  0  0
  3  4  1  0  0  0  0
  4  5  1  0  0  0  0
  5  6  1  0  0  0  0
  6  7  1  0  0  0  0
  7  8  1  0  0  0  0
  8  9  1  0  0  0  0
  9 10  1  0  0  0  0
 10 11  1  0  0  0  0
 11 12  1  0  0  0  0
 12 13  1  0  0  0  0
 13 14  1  0  0  0  0
 14 15  1  0  0  0  0
 15 16  1  0  0  0  0
 16 17  1  0  0  0  0
 17 18  1  0  0  0  0
 18 19  1  0  0  0  0
 19 20  1  0  0  0  0
 20 21  2  0  0  0  0
 20 22  1  0  0  0  0
  3 23  2  0  0  0  0
 23 24  1  0  0  0  0
 24 25  2  0  0  0  0
  2 25  1  0  0  0  0
 25 26  1  0  0  0  0
 26 27  2  0  0  0  0
 26 28  1  0  0  0  0
M  CHG  2  26   1  28  -1
M  END
> <Molecule Name>
CHEMBL3274669

> <IUPAC>
16-[(1-methyl-5-nitro-1H-imidazol-2-yl)sulfanyl]hexadecanoic acid

> <ChEMBL_Data_Neisseria_g: NUM_RO5_VIOLATIONS>
1

> <ChEMBL_Data_Neisseria_g: Qualifier_for_MIC_Ng>
>

> <ChEMBL_Data_Neisseria_g: ASSAY_CHEMBLID>
CHEMBL3283002

> <ChEMBL_Data_Neisseria_g: DESCRIPTION_of_Assay_Ng>
Antibacterial activity against Neisseria gonorrhoeae ATCC 19424 after 48 hrs by ten-fold serial dilution method

> <ChEMBL_Data_Neisseria_g: PUBMED_ID>
412966

> <ChEMBL_Data_Neisseria_g: YEAR>
1977

> <ChEMBL_Data_Neisseria_g: JOURNAL>
J. Med. Chem.

> <ChEMBL_Data_Neisseria_g: VOLUME>
20

> <ChEMBL_Data_Neisseria_g: FIRST_PAGE>
1697

> <ChEMBL_Data_Neisseria_g: MIC_vs_Neisseria_microg_per_mL>
100

> <ALogP>
6.55

> <Active>
0

> <Molecular_Weight>
413.575

> <ChEMBL_Data_Neisseria_g: STRAIN_of_Ng>
ATCC 19424

$$$$

Generated by Molecular Materials Informatics

 24 24  0  0  0  0  0  0  0  0999 V2000
   -6.0876    1.0794    0.0000 C   0  0  0  0  0  0  0  0  0  0  0  0
   -5.7758   -0.3878    0.0000 N   0  0  0  0  0  0  0  0  0  0  0  0
   -4.4055   -0.9978    0.0000 C   0  0  0  0  0  0  0  0  0  0  0  0
   -3.1064   -0.2478    0.0000 S   0  0  0  0  0  0  0  0  0  0  0  0
   -1.8076   -0.9978    0.0000 C   0  0  0  0  0  0  0  0  0  0  0  0
   -0.5085   -0.2478    0.0000 C   0  0  0  0  0  0  0  0  0  0  0  0
    0.7905   -0.9978    0.0000 C   0  0  0  0  0  0  0  0  0  0  0  0
    2.0894   -0.2478    0.0000 C   0  0  0  0  0  0  0  0  0  0  0  0
    3.3885   -0.9978    0.0000 C   0  0  0  0  0  0  0  0  0  0  0  0
    4.6875   -0.2478    0.0000 C   0  0  0  0  0  0  0  0  0  0  0  0
    5.9866   -0.9978    0.0000 C   0  0  0  0  0  0  0  0  0  0  0  0
    7.2854   -0.2478    0.0000 C   0  0  0  0  0  0  0  0  0  0  0  0
    8.5845   -0.9978    0.0000 C   0  0  0  0  0  0  0  0  0  0  0  0
    9.8835   -0.2478    0.0000 C   0  0  0  0  0  0  0  0  0  0  0  0
   11.1824   -0.9978    0.0000 C   0  0  0  0  0  0  0  0  0  0  0  0
   12.4814   -0.2478    0.0000 C   0  0  0  0  0  0  0  0  0  0  0  0
   13.7805   -0.9978    0.0000 O   0  0  0  0  0  0  0  0  0  0  0  0
   12.4814    1.2521    0.0000 O   0  0  0  0  0  0  0  0  0  0  0  0
   -4.5622   -2.4896    0.0000 N   0  0  0  0  0  0  0  0  0  0  0  0
   -6.0294   -2.8014    0.0000 C   0  0  0  0  0  0  0  0  0  0  0  0
   -6.7794   -1.5025    0.0000 C   0  0  0  0  0  0  0  0  0  0  0  0
   -8.2712   -1.3456    0.0000 N   0  3  0  0  0  0  0  0  0  0  0  0
   -9.1528   -2.5592    0.0000 O   0  0  0  0  0  0  0  0  0  0  0  0
   -8.8814    0.0247    0.0000 O   0  5  0  0  0  0  0  0  0  0  0  0
  1  2  1  0  0  0  0
  2  3  1  0  0  0  0
  3  4  1  0  0  0  0
  4  5  1  0  0  0  0
  5  6  1  0  0  0  0
  6  7  1  0  0  0  0
  7  8  1  0  0  0  0
  8  9  1  0  0  0  0
  9 10  1  0  0  0  0
 10 11  1  0  0  0  0
 11 12  1  0  0  0  0
 12 13  1  0  0  0  0
 13 14  1  0  0  0  0
 14 15  1  0  0  0  0
 15 16  1  0  0  0  0
 16 17  2  0  0  0  0
 16 18  1  0  0  0  0
  3 19  2  0  0  0  0
 19 20  1  0  0  0  0
 20 21  2  0  0  0  0
  2 21  1  0  0  0  0
 21 22  1  0  0  0  0
 22 23  2  0  0  0  0
 22 24  1  0  0  0  0
M  CHG  2  22   1  24  -1
M  END
> <Molecule Name>
CHEMBL3274668

> <IUPAC>
12-[(1-methyl-5-nitro-1H-imidazol-2-yl)sulfanyl]dodecanoic acid

> <ChEMBL_Data_Neisseria_g: NUM_RO5_VIOLATIONS>
0

> <ChEMBL_Data_Neisseria_g: Qualifier_for_MIC_Ng>
>

> <ChEMBL_Data_Neisseria_g: ASSAY_CHEMBLID>
CHEMBL3283002

> <ChEMBL_Data_Neisseria_g: DESCRIPTION_of_Assay_Ng>
Antibacterial activity against Neisseria gonorrhoeae ATCC 19424 after 48 hrs by ten-fold serial dilution method

> <ChEMBL_Data_Neisseria_g: PUBMED_ID>
412966

> <ChEMBL_Data_Neisseria_g: YEAR>
1977

> <ChEMBL_Data_Neisseria_g: JOURNAL>
J. Med. Chem.

> <ChEMBL_Data_Neisseria_g: VOLUME>
20

> <ChEMBL_Data_Neisseria_g: FIRST_PAGE>
1697

> <ChEMBL_Data_Neisseria_g: MIC_vs_Neisseria_microg_per_mL>
100

> <ALogP>
4.725

> <Active>
0

> <Molecular_Weight>
357.468

> <ChEMBL_Data_Neisseria_g: STRAIN_of_Ng>
ATCC 19424

$$$$

Generated by Molecular Materials Informatics

 26 26  0  0  0  0  0  0  0  0999 V2000
   -6.7797   -9.2186    0.0000 C   0  0  0  0  0  0  0  0  0  0  0  0
   -5.4807   -8.4686    0.0000 O   0  0  0  0  0  0  0  0  0  0  0  0
   -4.1818   -9.2186    0.0000 C   0  0  0  0  0  0  0  0  0  0  0  0
   -4.1818  -10.7185    0.0000 O   0  0  0  0  0  0  0  0  0  0  0  0
   -2.8827   -8.4686    0.0000 C   0  0  0  0  0  0  0  0  0  0  0  0
   -1.5837   -9.2186    0.0000 C   0  0  0  0  0  0  0  0  0  0  0  0
   -0.2848   -8.4686    0.0000 C   0  0  0  0  0  0  0  0  0  0  0  0
    1.0142   -9.2186    0.0000 C   0  0  0  0  0  0  0  0  0  0  0  0
    2.3133   -8.4686    0.0000 C   0  0  0  0  0  0  0  0  0  0  0  0
    3.6123   -9.2186    0.0000 C   0  0  0  0  0  0  0  0  0  0  0  0
    4.9112   -8.4686    0.0000 C   0  0  0  0  0  0  0  0  0  0  0  0
    6.2103   -9.2186    0.0000 C   0  0  0  0  0  0  0  0  0  0  0  0
    7.5093   -8.4686    0.0000 C   0  0  0  0  0  0  0  0  0  0  0  0
    8.8082   -9.2186    0.0000 C   0  0  0  0  0  0  0  0  0  0  0  0
   10.1072   -8.4686    0.0000 S   0  0  0  0  0  0  0  0  0  0  0  0
   10.8572   -9.7675    0.0000 O   0  0  0  0  0  0  0  0  0  0  0  0
    9.3573   -7.1696    0.0000 O   0  0  0  0  0  0  0  0  0  0  0  0
   11.4063   -7.7186    0.0000 C   0  0  0  0  0  0  0  0  0  0  0  0
   11.5630   -6.2269    0.0000 N   0  0  0  0  0  0  0  0  0  0  0  0
   13.0303   -5.9151    0.0000 C   0  0  0  0  0  0  0  0  0  0  0  0
   13.7802   -7.2139    0.0000 C   0  0  0  0  0  0  0  0  0  0  0  0
   15.2720   -7.3708    0.0000 N   0  3  0  0  0  0  0  0  0  0  0  0
   16.1536   -6.1572    0.0000 O   0  0  0  0  0  0  0  0  0  0  0  0
   15.8820   -8.7410    0.0000 O   0  5  0  0  0  0  0  0  0  0  0  0
   12.7766   -8.3286    0.0000 N   0  0  0  0  0  0  0  0  0  0  0  0
   13.0884   -9.7958    0.0000 C   0  0  0  0  0  0  0  0  0  0  0  0
  1  2  1  0  0  0  0
  2  3  1  0  0  0  0
  3  4  2  0  0  0  0
  3  5  1  0  0  0  0
  5  6  1  0  0  0  0
  6  7  1  0  0  0  0
  7  8  1  0  0  0  0
  8  9  1  0  0  0  0
  9 10  1  0  0  0  0
 10 11  1  0  0  0  0
 11 12  1  0  0  0  0
 12 13  1  0  0  0  0
 13 14  1  0  0  0  0
 14 15  1  0  0  0  0
 15 16  2  0  0  0  0
 15 17  2  0  0  0  0
 15 18  1  0  0  0  0
 18 19  2  0  0  0  0
 19 20  1  0  0  0  0
 20 21  2  0  0  0  0
 21 22  1  0  0  0  0
 22 23  2  0  0  0  0
 22 24  1  0  0  0  0
 21 25  1  0  0  0  0
 18 25  1  0  0  0  0
 25 26  1  0  0  0  0
M  CHG  2  22   1  24  -1
M  END
> <Molecule Name>
CHEMBL3274667

> <IUPAC>
methyl 11-[(1-methyl-5-nitro-1H-imidazol-2-yl)sulfonyl]undecanoate

> <ChEMBL_Data_Neisseria_g: NUM_RO5_VIOLATIONS>
0

> <ChEMBL_Data_Neisseria_g: Qualifier_for_MIC_Ng>
>

> <ChEMBL_Data_Neisseria_g: ASSAY_CHEMBLID>
CHEMBL3283002

> <ChEMBL_Data_Neisseria_g: DESCRIPTION_of_Assay_Ng>
Antibacterial activity against Neisseria gonorrhoeae ATCC 19424 after 48 hrs by ten-fold serial dilution method

> <ChEMBL_Data_Neisseria_g: PUBMED_ID>
412966

> <ChEMBL_Data_Neisseria_g: YEAR>
1977

> <ChEMBL_Data_Neisseria_g: JOURNAL>
J. Med. Chem.

> <ChEMBL_Data_Neisseria_g: VOLUME>
20

> <ChEMBL_Data_Neisseria_g: FIRST_PAGE>
1697

> <ChEMBL_Data_Neisseria_g: MIC_vs_Neisseria_microg_per_mL>
100

> <ALogP>
3.479

> <Active>
0

> <Molecular_Weight>
389.467

> <ChEMBL_Data_Neisseria_g: STRAIN_of_Ng>
ATCC 19424

$$$$

Generated by Molecular Materials Informatics

 25 25  0  0  0  0  0  0  0  0999 V2000
   -6.6173   -8.9130    0.0000 C   0  0  0  0  0  0  0  0  0  0  0  0
   -5.3182   -9.6630    0.0000 O   0  0  0  0  0  0  0  0  0  0  0  0
   -4.0192   -8.9130    0.0000 C   0  0  0  0  0  0  0  0  0  0  0  0
   -4.0192   -7.4131    0.0000 O   0  0  0  0  0  0  0  0  0  0  0  0
   -2.7203   -9.6630    0.0000 C   0  0  0  0  0  0  0  0  0  0  0  0
   -1.4213   -8.9130    0.0000 C   0  0  0  0  0  0  0  0  0  0  0  0
   -0.1222   -9.6630    0.0000 C   0  0  0  0  0  0  0  0  0  0  0  0
    1.1768   -8.9130    0.0000 C   0  0  0  0  0  0  0  0  0  0  0  0
    2.4757   -9.6630    0.0000 C   0  0  0  0  0  0  0  0  0  0  0  0
    3.7747   -8.9130    0.0000 C   0  0  0  0  0  0  0  0  0  0  0  0
    5.0738   -9.6630    0.0000 C   0  0  0  0  0  0  0  0  0  0  0  0
    6.3727   -8.9130    0.0000 C   0  0  0  0  0  0  0  0  0  0  0  0
    7.6717   -9.6630    0.0000 C   0  0  0  0  0  0  0  0  0  0  0  0
    8.9708   -8.9130    0.0000 C   0  0  0  0  0  0  0  0  0  0  0  0
   10.2696   -9.6630    0.0000 S   0  3  0  0  0  0  0  0  0  0  0  0
   10.2696  -11.1629    0.0000 O   0  5  0  0  0  0  0  0  0  0  0  0
   11.5687   -8.9130    0.0000 C   0  0  0  0  0  0  0  0  0  0  0  0
   11.7256   -7.4212    0.0000 N   0  0  0  0  0  0  0  0  0  0  0  0
   13.1926   -7.1093    0.0000 C   0  0  0  0  0  0  0  0  0  0  0  0
   13.9426   -8.4083    0.0000 C   0  0  0  0  0  0  0  0  0  0  0  0
   15.4344   -8.5652    0.0000 N   0  3  0  0  0  0  0  0  0  0  0  0
   16.3160   -7.3516    0.0000 O   0  0  0  0  0  0  0  0  0  0  0  0
   16.0446   -9.9353    0.0000 O   0  5  0  0  0  0  0  0  0  0  0  0
   12.9390   -9.5230    0.0000 N   0  0  0  0  0  0  0  0  0  0  0  0
   13.2508  -10.9902    0.0000 C   0  0  0  0  0  0  0  0  0  0  0  0
  1  2  1  0  0  0  0
  2  3  1  0  0  0  0
  3  4  2  0  0  0  0
  3  5  1  0  0  0  0
  5  6  1  0  0  0  0
  6  7  1  0  0  0  0
  7  8  1  0  0  0  0
  8  9  1  0  0  0  0
  9 10  1  0  0  0  0
 10 11  1  0  0  0  0
 11 12  1  0  0  0  0
 12 13  1  0  0  0  0
 13 14  1  0  0  0  0
 14 15  1  0  0  0  0
 15 16  1  0  0  0  0
 15 17  1  0  0  0  0
 17 18  2  0  0  0  0
 18 19  1  0  0  0  0
 19 20  2  0  0  0  0
 20 21  1  0  0  0  0
 21 22  2  0  0  0  0
 21 23  1  0  0  0  0
 20 24  1  0  0  0  0
 17 24  1  0  0  0  0
 24 25  1  0  0  0  0
M  CHG  4  15   1  16  -1  21   1  23  -1
M  END
> <Molecule Name>
CHEMBL3274666

> <IUPAC>
methyl 11-[(1-methyl-5-nitro-1H-imidazol-2-yl)sulfinyl]undecanoate

> <ChEMBL_Data_Neisseria_g: NUM_RO5_VIOLATIONS>
0

> <ChEMBL_Data_Neisseria_g: Qualifier_for_MIC_Ng>
=

> <ChEMBL_Data_Neisseria_g: ASSAY_CHEMBLID>
CHEMBL3283002

> <ChEMBL_Data_Neisseria_g: DESCRIPTION_of_Assay_Ng>
Antibacterial activity against Neisseria gonorrhoeae ATCC 19424 after 48 hrs by ten-fold serial dilution method

> <ChEMBL_Data_Neisseria_g: PUBMED_ID>
412966

> <ChEMBL_Data_Neisseria_g: YEAR>
1977

> <ChEMBL_Data_Neisseria_g: JOURNAL>
J. Med. Chem.

> <ChEMBL_Data_Neisseria_g: VOLUME>
20

> <ChEMBL_Data_Neisseria_g: FIRST_PAGE>
1697

> <ChEMBL_Data_Neisseria_g: MIC_vs_Neisseria_microg_per_mL>
100

> <ALogP>
3.701

> <Active>
0

> <Molecular_Weight>
373.468

> <ChEMBL_Data_Neisseria_g: STRAIN_of_Ng>
ATCC 19424

$$$$

Generated by Molecular Materials Informatics

 24 24  0  0  0  0  0  0  0  0999 V2000
   -6.6173   -8.9519    0.0000 C   0  0  0  0  0  0  0  0  0  0  0  0
   -5.3182   -9.7019    0.0000 O   0  0  0  0  0  0  0  0  0  0  0  0
   -4.0192   -8.9519    0.0000 C   0  0  0  0  0  0  0  0  0  0  0  0
   -4.0192   -7.4519    0.0000 O   0  0  0  0  0  0  0  0  0  0  0  0
   -2.7203   -9.7019    0.0000 C   0  0  0  0  0  0  0  0  0  0  0  0
   -1.4213   -8.9519    0.0000 C   0  0  0  0  0  0  0  0  0  0  0  0
   -0.1222   -9.7019    0.0000 C   0  0  0  0  0  0  0  0  0  0  0  0
    1.1768   -8.9519    0.0000 C   0  0  0  0  0  0  0  0  0  0  0  0
    2.4757   -9.7019    0.0000 C   0  0  0  0  0  0  0  0  0  0  0  0
    3.7747   -8.9519    0.0000 C   0  0  0  0  0  0  0  0  0  0  0  0
    5.0738   -9.7019    0.0000 C   0  0  0  0  0  0  0  0  0  0  0  0
    6.3727   -8.9519    0.0000 C   0  0  0  0  0  0  0  0  0  0  0  0
    7.6717   -9.7019    0.0000 C   0  0  0  0  0  0  0  0  0  0  0  0
    8.9708   -8.9519    0.0000 C   0  0  0  0  0  0  0  0  0  0  0  0
   10.2696   -9.7019    0.0000 S   0  0  0  0  0  0  0  0  0  0  0  0
   11.5687   -8.9519    0.0000 C   0  0  0  0  0  0  0  0  0  0  0  0
   11.7256   -7.4601    0.0000 N   0  0  0  0  0  0  0  0  0  0  0  0
   13.1926   -7.1481    0.0000 C   0  0  0  0  0  0  0  0  0  0  0  0
   13.9426   -8.4472    0.0000 C   0  0  0  0  0  0  0  0  0  0  0  0
   15.4344   -8.6041    0.0000 N   0  3  0  0  0  0  0  0  0  0  0  0
   16.3160   -7.3905    0.0000 O   0  0  0  0  0  0  0  0  0  0  0  0
   16.0446   -9.9742    0.0000 O   0  5  0  0  0  0  0  0  0  0  0  0
   12.9390   -9.5619    0.0000 N   0  0  0  0  0  0  0  0  0  0  0  0
   13.2508  -11.0291    0.0000 C   0  0  0  0  0  0  0  0  0  0  0  0
  1  2  1  0  0  0  0
  2  3  1  0  0  0  0
  3  4  2  0  0  0  0
  3  5  1  0  0  0  0
  5  6  1  0  0  0  0
  6  7  1  0  0  0  0
  7  8  1  0  0  0  0
  8  9  1  0  0  0  0
  9 10  1  0  0  0  0
 10 11  1  0  0  0  0
 11 12  1  0  0  0  0
 12 13  1  0  0  0  0
 13 14  1  0  0  0  0
 14 15  1  0  0  0  0
 15 16  1  0  0  0  0
 16 17  2  0  0  0  0
 17 18  1  0  0  0  0
 18 19  2  0  0  0  0
 19 20  1  0  0  0  0
 20 21  2  0  0  0  0
 20 22  1  0  0  0  0
 19 23  1  0  0  0  0
 16 23  1  0  0  0  0
 23 24  1  0  0  0  0
M  CHG  2  20   1  22  -1
M  END
> <Molecule Name>
CHEMBL3274665

> <IUPAC>
methyl 11-[(1-methyl-5-nitro-1H-imidazol-2-yl)sulfanyl]undecanoate

> <ChEMBL_Data_Neisseria_g: NUM_RO5_VIOLATIONS>
0

> <ChEMBL_Data_Neisseria_g: Qualifier_for_MIC_Ng>
>

> <ChEMBL_Data_Neisseria_g: ASSAY_CHEMBLID>
CHEMBL3283002

> <ChEMBL_Data_Neisseria_g: DESCRIPTION_of_Assay_Ng>
Antibacterial activity against Neisseria gonorrhoeae ATCC 19424 after 48 hrs by ten-fold serial dilution method

> <ChEMBL_Data_Neisseria_g: PUBMED_ID>
412966

> <ChEMBL_Data_Neisseria_g: YEAR>
1977

> <ChEMBL_Data_Neisseria_g: JOURNAL>
J. Med. Chem.

> <ChEMBL_Data_Neisseria_g: VOLUME>
20

> <ChEMBL_Data_Neisseria_g: FIRST_PAGE>
1697

> <ChEMBL_Data_Neisseria_g: MIC_vs_Neisseria_microg_per_mL>
100

> <ALogP>
4.495

> <Active>
0

> <Molecular_Weight>
357.468

> <ChEMBL_Data_Neisseria_g: STRAIN_of_Ng>
ATCC 19424

$$$$

Generated by Molecular Materials Informatics

 24 24  0  0  0  0  0  0  0  0999 V2000
   -7.2636    1.8276    0.0000 C   0  0  0  0  0  0  0  0  0  0  0  0
   -6.9516    0.3603    0.0000 N   0  0  0  0  0  0  0  0  0  0  0  0
   -5.5815   -0.2498    0.0000 C   0  0  0  0  0  0  0  0  0  0  0  0
   -5.7382   -1.7414    0.0000 N   0  0  0  0  0  0  0  0  0  0  0  0
   -7.2054   -2.0534    0.0000 C   0  0  0  0  0  0  0  0  0  0  0  0
   -7.9554   -0.7544    0.0000 C   0  0  0  0  0  0  0  0  0  0  0  0
   -9.4470   -0.5976    0.0000 N   0  3  0  0  0  0  0  0  0  0  0  0
  -10.3288   -1.8111    0.0000 O   0  0  0  0  0  0  0  0  0  0  0  0
  -10.0571    0.7727    0.0000 O   0  5  0  0  0  0  0  0  0  0  0  0
   -4.2824    0.5002    0.0000 S   0  3  0  0  0  0  0  0  0  0  0  0
   -4.2824    2.0001    0.0000 O   0  5  0  0  0  0  0  0  0  0  0  0
   -2.9834   -0.2498    0.0000 C   0  0  0  0  0  0  0  0  0  0  0  0
   -1.6843    0.5002    0.0000 C   0  0  0  0  0  0  0  0  0  0  0  0
   -0.3854   -0.2498    0.0000 C   0  0  0  0  0  0  0  0  0  0  0  0
    0.9136    0.5002    0.0000 C   0  0  0  0  0  0  0  0  0  0  0  0
    2.2127   -0.2498    0.0000 C   0  0  0  0  0  0  0  0  0  0  0  0
    3.5115    0.5002    0.0000 C   0  0  0  0  0  0  0  0  0  0  0  0
    4.8106   -0.2498    0.0000 C   0  0  0  0  0  0  0  0  0  0  0  0
    6.1096    0.5002    0.0000 C   0  0  0  0  0  0  0  0  0  0  0  0
    7.4087   -0.2498    0.0000 C   0  0  0  0  0  0  0  0  0  0  0  0
    8.7076    0.5002    0.0000 C   0  0  0  0  0  0  0  0  0  0  0  0
   10.0066   -0.2498    0.0000 C   0  0  0  0  0  0  0  0  0  0  0  0
   11.3057    0.5002    0.0000 O   0  0  0  0  0  0  0  0  0  0  0  0
   10.0066   -1.7498    0.0000 O   0  0  0  0  0  0  0  0  0  0  0  0
  1  2  1  0  0  0  0
  2  3  1  0  0  0  0
  3  4  2  0  0  0  0
  4  5  1  0  0  0  0
  5  6  2  0  0  0  0
  2  6  1  0  0  0  0
  6  7  1  0  0  0  0
  7  8  2  0  0  0  0
  7  9  1  0  0  0  0
  3 10  1  0  0  0  0
 10 11  1  0  0  0  0
 10 12  1  0  0  0  0
 12 13  1  0  0  0  0
 13 14  1  0  0  0  0
 14 15  1  0  0  0  0
 15 16  1  0  0  0  0
 16 17  1  0  0  0  0
 17 18  1  0  0  0  0
 18 19  1  0  0  0  0
 19 20  1  0  0  0  0
 20 21  1  0  0  0  0
 21 22  1  0  0  0  0
 22 23  2  0  0  0  0
 22 24  1  0  0  0  0
M  CHG  4   7   1   9  -1  10   1  11  -1
M  END
> <Molecule Name>
CHEMBL3274664

> <IUPAC>
11-[(1-methyl-5-nitro-1H-imidazol-2-yl)sulfinyl]undecanoic acid

> <ChEMBL_Data_Neisseria_g: NUM_RO5_VIOLATIONS>
0

> <ChEMBL_Data_Neisseria_g: Qualifier_for_MIC_Ng>
=

> <ChEMBL_Data_Neisseria_g: ASSAY_CHEMBLID>
CHEMBL3283002

> <ChEMBL_Data_Neisseria_g: DESCRIPTION_of_Assay_Ng>
Antibacterial activity against Neisseria gonorrhoeae ATCC 19424 after 48 hrs by ten-fold serial dilution method

> <ChEMBL_Data_Neisseria_g: PUBMED_ID>
412966

> <ChEMBL_Data_Neisseria_g: YEAR>
1977

> <ChEMBL_Data_Neisseria_g: JOURNAL>
J. Med. Chem.

> <ChEMBL_Data_Neisseria_g: VOLUME>
20

> <ChEMBL_Data_Neisseria_g: FIRST_PAGE>
1697

> <ChEMBL_Data_Neisseria_g: MIC_vs_Neisseria_microg_per_mL>
100

> <ALogP>
3.475

> <Active>
0

> <Molecular_Weight>
359.441

> <ChEMBL_Data_Neisseria_g: STRAIN_of_Ng>
ATCC 19424

$$$$

Generated by Molecular Materials Informatics

 23 23  0  0  0  0  0  0  0  0999 V2000
   -7.2636    1.8664    0.0000 C   0  0  0  0  0  0  0  0  0  0  0  0
   -6.9516    0.3992    0.0000 N   0  0  0  0  0  0  0  0  0  0  0  0
   -5.5815   -0.2110    0.0000 C   0  0  0  0  0  0  0  0  0  0  0  0
   -4.2824    0.5390    0.0000 S   0  0  0  0  0  0  0  0  0  0  0  0
   -2.9834   -0.2110    0.0000 C   0  0  0  0  0  0  0  0  0  0  0  0
   -1.6843    0.5390    0.0000 C   0  0  0  0  0  0  0  0  0  0  0  0
   -0.3854   -0.2110    0.0000 C   0  0  0  0  0  0  0  0  0  0  0  0
    0.9136    0.5390    0.0000 C   0  0  0  0  0  0  0  0  0  0  0  0
    2.2127   -0.2110    0.0000 C   0  0  0  0  0  0  0  0  0  0  0  0
    3.5115    0.5390    0.0000 C   0  0  0  0  0  0  0  0  0  0  0  0
    4.8106   -0.2110    0.0000 C   0  0  0  0  0  0  0  0  0  0  0  0
    6.1096    0.5390    0.0000 C   0  0  0  0  0  0  0  0  0  0  0  0
    7.4087   -0.2110    0.0000 C   0  0  0  0  0  0  0  0  0  0  0  0
    8.7076    0.5390    0.0000 C   0  0  0  0  0  0  0  0  0  0  0  0
   10.0066   -0.2110    0.0000 C   0  0  0  0  0  0  0  0  0  0  0  0
   11.3057    0.5390    0.0000 O   0  0  0  0  0  0  0  0  0  0  0  0
   10.0066   -1.7110    0.0000 O   0  0  0  0  0  0  0  0  0  0  0  0
   -5.7382   -1.7026    0.0000 N   0  0  0  0  0  0  0  0  0  0  0  0
   -7.2054   -2.0146    0.0000 C   0  0  0  0  0  0  0  0  0  0  0  0
   -7.9554   -0.7155    0.0000 C   0  0  0  0  0  0  0  0  0  0  0  0
   -9.4470   -0.5588    0.0000 N   0  3  0  0  0  0  0  0  0  0  0  0
  -10.3288   -1.7722    0.0000 O   0  0  0  0  0  0  0  0  0  0  0  0
  -10.0571    0.8115    0.0000 O   0  5  0  0  0  0  0  0  0  0  0  0
  1  2  1  0  0  0  0
  2  3  1  0  0  0  0
  3  4  1  0  0  0  0
  4  5  1  0  0  0  0
  5  6  1  0  0  0  0
  6  7  1  0  0  0  0
  7  8  1  0  0  0  0
  8  9  1  0  0  0  0
  9 10  1  0  0  0  0
 10 11  1  0  0  0  0
 11 12  1  0  0  0  0
 12 13  1  0  0  0  0
 13 14  1  0  0  0  0
 14 15  1  0  0  0  0
 15 16  2  0  0  0  0
 15 17  1  0  0  0  0
  3 18  2  0  0  0  0
 18 19  1  0  0  0  0
 19 20  2  0  0  0  0
  2 20  1  0  0  0  0
 20 21  1  0  0  0  0
 21 22  2  0  0  0  0
 21 23  1  0  0  0  0
M  CHG  2  21   1  23  -1
M  END
> <Molecule Name>
CHEMBL3274663

> <IUPAC>
11-[(1-methyl-5-nitro-1H-imidazol-2-yl)sulfanyl]undecanoic acid

> <ChEMBL_Data_Neisseria_g: NUM_RO5_VIOLATIONS>
0

> <ChEMBL_Data_Neisseria_g: Qualifier_for_MIC_Ng>
=

> <ChEMBL_Data_Neisseria_g: ASSAY_CHEMBLID>
CHEMBL3283002

> <ChEMBL_Data_Neisseria_g: DESCRIPTION_of_Assay_Ng>
Antibacterial activity against Neisseria gonorrhoeae ATCC 19424 after 48 hrs by ten-fold serial dilution method

> <ChEMBL_Data_Neisseria_g: PUBMED_ID>
412966

> <ChEMBL_Data_Neisseria_g: YEAR>
1977

> <ChEMBL_Data_Neisseria_g: JOURNAL>
J. Med. Chem.

> <ChEMBL_Data_Neisseria_g: VOLUME>
20

> <ChEMBL_Data_Neisseria_g: FIRST_PAGE>
1697

> <ChEMBL_Data_Neisseria_g: MIC_vs_Neisseria_microg_per_mL>
0.1

> <ALogP>
4.269

> <Active>
1

> <Molecular_Weight>
343.442

> <ChEMBL_Data_Neisseria_g: STRAIN_of_Ng>
ATCC 19424

$$$$

Generated by Molecular Materials Informatics

 20 20  0  0  0  0  0  0  0  0999 V2000
    0.8841   -2.0495    0.0000 C   0  0  0  0  0  0  0  0  0  0  0  0
   -0.2306   -1.0459    0.0000 N   0  0  0  0  0  0  0  0  0  0  0  0
   -1.6979   -1.3577    0.0000 C   0  0  0  0  0  0  0  0  0  0  0  0
   -2.4478   -0.0586    0.0000 C   0  0  0  0  0  0  0  0  0  0  0  0
   -1.4442    1.0561    0.0000 N   0  0  0  0  0  0  0  0  0  0  0  0
   -0.0739    0.4459    0.0000 C   0  0  0  0  0  0  0  0  0  0  0  0
    1.2251    1.1959    0.0000 S   0  0  0  0  0  0  0  0  0  0  0  0
    2.5242    0.4459    0.0000 C   0  0  0  0  0  0  0  0  0  0  0  0
    3.8231    1.1959    0.0000 C   0  0  0  0  0  0  0  0  0  0  0  0
    5.1221    0.4459    0.0000 C   0  0  0  0  0  0  0  0  0  0  0  0
    6.4212    1.1959    0.0000 C   0  0  0  0  0  0  0  0  0  0  0  0
    7.7200    0.4459    0.0000 C   0  0  0  0  0  0  0  0  0  0  0  0
    9.0191    1.1959    0.0000 C   0  0  0  0  0  0  0  0  0  0  0  0
   10.3181    0.4459    0.0000 C   0  0  0  0  0  0  0  0  0  0  0  0
   11.6172    1.1959    0.0000 C   0  0  0  0  0  0  0  0  0  0  0  0
   12.9161    0.4459    0.0000 C   0  0  0  0  0  0  0  0  0  0  0  0
   14.2151    1.1959    0.0000 C   0  0  0  0  0  0  0  0  0  0  0  0
   15.5142    0.4459    0.0000 C   0  0  0  0  0  0  0  0  0  0  0  0
   16.8130    1.1959    0.0000 O   0  0  0  0  0  0  0  0  0  0  0  0
   15.5142   -1.0541    0.0000 O   0  0  0  0  0  0  0  0  0  0  0  0
  1  2  1  0  0  0  0
  2  3  1  0  0  0  0
  3  4  2  0  0  0  0
  4  5  1  0  0  0  0
  5  6  2  0  0  0  0
  2  6  1  0  0  0  0
  6  7  1  0  0  0  0
  7  8  1  0  0  0  0
  8  9  1  0  0  0  0
  9 10  1  0  0  0  0
 10 11  1  0  0  0  0
 11 12  1  0  0  0  0
 12 13  1  0  0  0  0
 13 14  1  0  0  0  0
 14 15  1  0  0  0  0
 15 16  1  0  0  0  0
 16 17  1  0  0  0  0
 17 18  1  0  0  0  0
 18 19  2  0  0  0  0
 18 20  1  0  0  0  0
M  END
> <Molecule Name>
CHEMBL3274662

> <IUPAC>
11-[(1-methyl-1H-imidazol-2-yl)sulfanyl]undecanoic acid hydrobromide

> <ChEMBL_Data_Neisseria_g: NUM_RO5_VIOLATIONS>
0

> <ChEMBL_Data_Neisseria_g: Qualifier_for_MIC_Ng>
>

> <ChEMBL_Data_Neisseria_g: ASSAY_CHEMBLID>
CHEMBL3283002

> <ChEMBL_Data_Neisseria_g: DESCRIPTION_of_Assay_Ng>
Antibacterial activity against Neisseria gonorrhoeae ATCC 19424 after 48 hrs by ten-fold serial dilution method

> <ChEMBL_Data_Neisseria_g: PUBMED_ID>
412966

> <ChEMBL_Data_Neisseria_g: YEAR>
1977

> <ChEMBL_Data_Neisseria_g: JOURNAL>
J. Med. Chem.

> <ChEMBL_Data_Neisseria_g: VOLUME>
20

> <ChEMBL_Data_Neisseria_g: FIRST_PAGE>
1697

> <ChEMBL_Data_Neisseria_g: MIC_vs_Neisseria_microg_per_mL>
100

> <ALogP>
4.741

> <Active>
0

> <Molecular_Weight>
298.444

> <ChEMBL_Data_Neisseria_g: STRAIN_of_Ng>
ATCC 19424

$$$$

Generated by Molecular Materials Informatics

 22 22  0  0  0  0  0  0  0  0999 V2000
   -5.5031    1.0794    0.0000 C   0  0  0  0  0  0  0  0  0  0  0  0
   -5.1913   -0.3878    0.0000 N   0  0  0  0  0  0  0  0  0  0  0  0
   -3.8209   -0.9978    0.0000 C   0  0  0  0  0  0  0  0  0  0  0  0
   -2.5219   -0.2478    0.0000 S   0  0  0  0  0  0  0  0  0  0  0  0
   -1.2230   -0.9978    0.0000 C   0  0  0  0  0  0  0  0  0  0  0  0
    0.0760   -0.2478    0.0000 C   0  0  0  0  0  0  0  0  0  0  0  0
    1.3751   -0.9978    0.0000 C   0  0  0  0  0  0  0  0  0  0  0  0
    2.6740   -0.2478    0.0000 C   0  0  0  0  0  0  0  0  0  0  0  0
    3.9730   -0.9978    0.0000 C   0  0  0  0  0  0  0  0  0  0  0  0
    5.2721   -0.2478    0.0000 C   0  0  0  0  0  0  0  0  0  0  0  0
    6.5711   -0.9978    0.0000 C   0  0  0  0  0  0  0  0  0  0  0  0
    7.8700   -0.2478    0.0000 C   0  0  0  0  0  0  0  0  0  0  0  0
    9.1690   -0.9978    0.0000 C   0  0  0  0  0  0  0  0  0  0  0  0
   10.4681   -0.2478    0.0000 C   0  0  0  0  0  0  0  0  0  0  0  0
   11.7670   -0.9978    0.0000 O   0  0  0  0  0  0  0  0  0  0  0  0
   10.4681    1.2521    0.0000 O   0  0  0  0  0  0  0  0  0  0  0  0
   -3.9777   -2.4896    0.0000 N   0  0  0  0  0  0  0  0  0  0  0  0
   -5.4449   -2.8014    0.0000 C   0  0  0  0  0  0  0  0  0  0  0  0
   -6.1949   -1.5025    0.0000 C   0  0  0  0  0  0  0  0  0  0  0  0
   -7.6867   -1.3456    0.0000 N   0  3  0  0  0  0  0  0  0  0  0  0
   -8.5683   -2.5592    0.0000 O   0  0  0  0  0  0  0  0  0  0  0  0
   -8.2968    0.0247    0.0000 O   0  5  0  0  0  0  0  0  0  0  0  0
  1  2  1  0  0  0  0
  2  3  1  0  0  0  0
  3  4  1  0  0  0  0
  4  5  1  0  0  0  0
  5  6  1  0  0  0  0
  6  7  1  0  0  0  0
  7  8  1  0  0  0  0
  8  9  1  0  0  0  0
  9 10  1  0  0  0  0
 10 11  1  0  0  0  0
 11 12  1  0  0  0  0
 12 13  1  0  0  0  0
 13 14  1  0  0  0  0
 14 15  2  0  0  0  0
 14 16  1  0  0  0  0
  3 17  2  0  0  0  0
 17 18  1  0  0  0  0
 18 19  2  0  0  0  0
  2 19  1  0  0  0  0
 19 20  1  0  0  0  0
 20 21  2  0  0  0  0
 20 22  1  0  0  0  0
M  CHG  2  20   1  22  -1
M  END
> <Molecule Name>
CHEMBL3274661

> <IUPAC>
10-[(1-methyl-5-nitro-1H-imidazol-2-yl)sulfanyl]decanoic acid

> <ChEMBL_Data_Neisseria_g: NUM_RO5_VIOLATIONS>
0

> <ChEMBL_Data_Neisseria_g: Qualifier_for_MIC_Ng>
=

> <ChEMBL_Data_Neisseria_g: ASSAY_CHEMBLID>
CHEMBL3283002

> <ChEMBL_Data_Neisseria_g: DESCRIPTION_of_Assay_Ng>
Antibacterial activity against Neisseria gonorrhoeae ATCC 19424 after 48 hrs by ten-fold serial dilution method

> <ChEMBL_Data_Neisseria_g: PUBMED_ID>
412966

> <ChEMBL_Data_Neisseria_g: YEAR>
1977

> <ChEMBL_Data_Neisseria_g: JOURNAL>
J. Med. Chem.

> <ChEMBL_Data_Neisseria_g: VOLUME>
20

> <ChEMBL_Data_Neisseria_g: FIRST_PAGE>
1697

> <ChEMBL_Data_Neisseria_g: MIC_vs_Neisseria_microg_per_mL>
0.1

> <ALogP>
3.813

> <Active>
1

> <Molecular_Weight>
329.415

> <ChEMBL_Data_Neisseria_g: STRAIN_of_Ng>
ATCC 19424

$$$$

Generated by Molecular Materials Informatics

 21 21  0  0  0  0  0  0  0  0999 V2000
   -6.6790    1.8664    0.0000 C   0  0  0  0  0  0  0  0  0  0  0  0
   -6.3670    0.3992    0.0000 N   0  0  0  0  0  0  0  0  0  0  0  0
   -4.9969   -0.2110    0.0000 C   0  0  0  0  0  0  0  0  0  0  0  0
   -3.6979    0.5390    0.0000 S   0  0  0  0  0  0  0  0  0  0  0  0
   -2.3988   -0.2110    0.0000 C   0  0  0  0  0  0  0  0  0  0  0  0
   -1.0998    0.5390    0.0000 C   0  0  0  0  0  0  0  0  0  0  0  0
    0.1991   -0.2110    0.0000 C   0  0  0  0  0  0  0  0  0  0  0  0
    1.4982    0.5390    0.0000 C   0  0  0  0  0  0  0  0  0  0  0  0
    2.7972   -0.2110    0.0000 C   0  0  0  0  0  0  0  0  0  0  0  0
    4.0961    0.5390    0.0000 C   0  0  0  0  0  0  0  0  0  0  0  0
    5.3951   -0.2110    0.0000 C   0  0  0  0  0  0  0  0  0  0  0  0
    6.6942    0.5390    0.0000 C   0  0  0  0  0  0  0  0  0  0  0  0
    7.9932   -0.2110    0.0000 C   0  0  0  0  0  0  0  0  0  0  0  0
    9.2921    0.5390    0.0000 O   0  0  0  0  0  0  0  0  0  0  0  0
    7.9932   -1.7110    0.0000 O   0  0  0  0  0  0  0  0  0  0  0  0
   -5.1536   -1.7026    0.0000 N   0  0  0  0  0  0  0  0  0  0  0  0
   -6.6209   -2.0146    0.0000 C   0  0  0  0  0  0  0  0  0  0  0  0
   -7.3708   -0.7155    0.0000 C   0  0  0  0  0  0  0  0  0  0  0  0
   -8.8624   -0.5588    0.0000 N   0  3  0  0  0  0  0  0  0  0  0  0
   -9.7442   -1.7722    0.0000 O   0  0  0  0  0  0  0  0  0  0  0  0
   -9.4726    0.8115    0.0000 O   0  5  0  0  0  0  0  0  0  0  0  0
  1  2  1  0  0  0  0
  2  3  1  0  0  0  0
  3  4  1  0  0  0  0
  4  5  1  0  0  0  0
  5  6  1  0  0  0  0
  6  7  1  0  0  0  0
  7  8  1  0  0  0  0
  8  9  1  0  0  0  0
  9 10  1  0  0  0  0
 10 11  1  0  0  0  0
 11 12  1  0  0  0  0
 12 13  1  0  0  0  0
 13 14  2  0  0  0  0
 13 15  1  0  0  0  0
  3 16  2  0  0  0  0
 16 17  1  0  0  0  0
 17 18  2  0  0  0  0
  2 18  1  0  0  0  0
 18 19  1  0  0  0  0
 19 20  2  0  0  0  0
 19 21  1  0  0  0  0
M  CHG  2  19   1  21  -1
M  END
> <Molecule Name>
CHEMBL3274660

> <IUPAC>
9-[(1-methyl-5-nitro-1H-imidazol-2-yl)sulfanyl]nonanoic acid

> <ChEMBL_Data_Neisseria_g: NUM_RO5_VIOLATIONS>
0

> <ChEMBL_Data_Neisseria_g: Qualifier_for_MIC_Ng>
=

> <ChEMBL_Data_Neisseria_g: ASSAY_CHEMBLID>
CHEMBL3283002

> <ChEMBL_Data_Neisseria_g: DESCRIPTION_of_Assay_Ng>
Antibacterial activity against Neisseria gonorrhoeae ATCC 19424 after 48 hrs by ten-fold serial dilution method

> <ChEMBL_Data_Neisseria_g: PUBMED_ID>
412966

> <ChEMBL_Data_Neisseria_g: YEAR>
1977

> <ChEMBL_Data_Neisseria_g: JOURNAL>
J. Med. Chem.

> <ChEMBL_Data_Neisseria_g: VOLUME>
20

> <ChEMBL_Data_Neisseria_g: FIRST_PAGE>
1697

> <ChEMBL_Data_Neisseria_g: MIC_vs_Neisseria_microg_per_mL>
0.1

> <ALogP>
3.357

> <Active>
1

> <Molecular_Weight>
315.389

> <ChEMBL_Data_Neisseria_g: STRAIN_of_Ng>
ATCC 19424

$$$$

Generated by Molecular Materials Informatics

 20 20  0  0  0  0  0  0  0  0999 V2000
   -4.9186    1.0794    0.0000 C   0  0  0  0  0  0  0  0  0  0  0  0
   -4.6068   -0.3878    0.0000 N   0  0  0  0  0  0  0  0  0  0  0  0
   -3.2364   -0.9978    0.0000 C   0  0  0  0  0  0  0  0  0  0  0  0
   -1.9374   -0.2478    0.0000 S   0  0  0  0  0  0  0  0  0  0  0  0
   -0.6385   -0.9978    0.0000 C   0  0  0  0  0  0  0  0  0  0  0  0
    0.6605   -0.2478    0.0000 C   0  0  0  0  0  0  0  0  0  0  0  0
    1.9596   -0.9978    0.0000 C   0  0  0  0  0  0  0  0  0  0  0  0
    3.2585   -0.2478    0.0000 C   0  0  0  0  0  0  0  0  0  0  0  0
    4.5575   -0.9978    0.0000 C   0  0  0  0  0  0  0  0  0  0  0  0
    5.8566   -0.2478    0.0000 C   0  0  0  0  0  0  0  0  0  0  0  0
    7.1556   -0.9978    0.0000 C   0  0  0  0  0  0  0  0  0  0  0  0
    8.4545   -0.2478    0.0000 C   0  0  0  0  0  0  0  0  0  0  0  0
    9.7536   -0.9978    0.0000 O   0  0  0  0  0  0  0  0  0  0  0  0
    8.4545    1.2521    0.0000 O   0  0  0  0  0  0  0  0  0  0  0  0
   -3.3932   -2.4896    0.0000 N   0  0  0  0  0  0  0  0  0  0  0  0
   -4.8604   -2.8014    0.0000 C   0  0  0  0  0  0  0  0  0  0  0  0
   -5.6104   -1.5025    0.0000 C   0  0  0  0  0  0  0  0  0  0  0  0
   -7.1021   -1.3456    0.0000 N   0  3  0  0  0  0  0  0  0  0  0  0
   -7.9838   -2.5592    0.0000 O   0  0  0  0  0  0  0  0  0  0  0  0
   -7.7123    0.0247    0.0000 O   0  5  0  0  0  0  0  0  0  0  0  0
  1  2  1  0  0  0  0
  2  3  1  0  0  0  0
  3  4  1  0  0  0  0
  4  5  1  0  0  0  0
  5  6  1  0  0  0  0
  6  7  1  0  0  0  0
  7  8  1  0  0  0  0
  8  9  1  0  0  0  0
  9 10  1  0  0  0  0
 10 11  1  0  0  0  0
 11 12  1  0  0  0  0
 12 13  2  0  0  0  0
 12 14  1  0  0  0  0
  3 15  2  0  0  0  0
 15 16  1  0  0  0  0
 16 17  2  0  0  0  0
  2 17  1  0  0  0  0
 17 18  1  0  0  0  0
 18 19  2  0  0  0  0
 18 20  1  0  0  0  0
M  CHG  2  18   1  20  -1
M  END
> <Molecule Name>
CHEMBL3274659

> <IUPAC>
8-[(1-methyl-5-nitro-1H-imidazol-2-yl)sulfanyl]octanoic acid

> <ChEMBL_Data_Neisseria_g: NUM_RO5_VIOLATIONS>
0

> <ChEMBL_Data_Neisseria_g: Qualifier_for_MIC_Ng>
=

> <ChEMBL_Data_Neisseria_g: ASSAY_CHEMBLID>
CHEMBL3283002

> <ChEMBL_Data_Neisseria_g: DESCRIPTION_of_Assay_Ng>
Antibacterial activity against Neisseria gonorrhoeae ATCC 19424 after 48 hrs by ten-fold serial dilution method

> <ChEMBL_Data_Neisseria_g: PUBMED_ID>
412966

> <ChEMBL_Data_Neisseria_g: YEAR>
1977

> <ChEMBL_Data_Neisseria_g: JOURNAL>
J. Med. Chem.

> <ChEMBL_Data_Neisseria_g: VOLUME>
20

> <ChEMBL_Data_Neisseria_g: FIRST_PAGE>
1697

> <ChEMBL_Data_Neisseria_g: MIC_vs_Neisseria_microg_per_mL>
0.1

> <ALogP>
2.901

> <Active>
1

> <Molecular_Weight>
301.362

> <ChEMBL_Data_Neisseria_g: STRAIN_of_Ng>
ATCC 19424

$$$$

Generated by Molecular Materials Informatics

 19 19  0  0  0  0  0  0  0  0999 V2000
    0.4738   -2.4660    0.0000 C   0  0  0  0  0  0  0  0  0  0  0  0
   -0.6409   -1.4624    0.0000 N   0  0  0  0  0  0  0  0  0  0  0  0
   -2.1082   -1.7742    0.0000 C   0  0  0  0  0  0  0  0  0  0  0  0
   -2.8581   -0.4751    0.0000 C   0  0  0  0  0  0  0  0  0  0  0  0
   -1.8545    0.6396    0.0000 N   0  0  0  0  0  0  0  0  0  0  0  0
   -0.4842    0.0294    0.0000 C   0  0  0  0  0  0  0  0  0  0  0  0
    0.8149    0.7794    0.0000 S   0  0  0  0  0  0  0  0  0  0  0  0
    2.1138    0.0294    0.0000 C   0  0  0  0  0  0  0  0  0  0  0  0
    3.4128    0.7794    0.0000 C   0  0  0  0  0  0  0  0  0  0  0  0
    4.7119    0.0294    0.0000 C   0  0  0  0  0  0  0  0  0  0  0  0
    6.0110    0.7794    0.0000 C   0  0  0  0  0  0  0  0  0  0  0  0
    7.3098    0.0294    0.0000 C   0  0  0  0  0  0  0  0  0  0  0  0
    8.6089    0.7794    0.0000 C   0  0  0  0  0  0  0  0  0  0  0  0
    9.9080    0.0294    0.0000 C   0  0  0  0  0  0  0  0  0  0  0  0
   11.2069    0.7794    0.0000 O   0  0  0  0  0  0  0  0  0  0  0  0
    9.9080   -1.4706    0.0000 O   0  0  0  0  0  0  0  0  0  0  0  0
   -4.3499   -0.3184    0.0000 N   0  3  0  0  0  0  0  0  0  0  0  0
   -5.2316   -1.5319    0.0000 O   0  0  0  0  0  0  0  0  0  0  0  0
   -4.9599    1.0519    0.0000 O   0  5  0  0  0  0  0  0  0  0  0  0
  1  2  1  0  0  0  0
  2  3  1  0  0  0  0
  3  4  2  0  0  0  0
  4  5  1  0  0  0  0
  5  6  2  0  0  0  0
  2  6  1  0  0  0  0
  6  7  1  0  0  0  0
  7  8  1  0  0  0  0
  8  9  1  0  0  0  0
  9 10  1  0  0  0  0
 10 11  1  0  0  0  0
 11 12  1  0  0  0  0
 12 13  1  0  0  0  0
 13 14  1  0  0  0  0
 14 15  2  0  0  0  0
 14 16  1  0  0  0  0
  4 17  1  0  0  0  0
 17 18  2  0  0  0  0
 17 19  1  0  0  0  0
M  CHG  2  17   1  19  -1
M  END
> <Molecule Name>
CHEMBL3274658

> <IUPAC>
7-[(1-methyl-4-nitro-1H-imidazol-2-yl)sulfanyl]heptanoic acid

> <ChEMBL_Data_Neisseria_g: NUM_RO5_VIOLATIONS>
0

> <ChEMBL_Data_Neisseria_g: Qualifier_for_MIC_Ng>
>

> <ChEMBL_Data_Neisseria_g: ASSAY_CHEMBLID>
CHEMBL3283002

> <ChEMBL_Data_Neisseria_g: DESCRIPTION_of_Assay_Ng>
Antibacterial activity against Neisseria gonorrhoeae ATCC 19424 after 48 hrs by ten-fold serial dilution method

> <ChEMBL_Data_Neisseria_g: PUBMED_ID>
412966

> <ChEMBL_Data_Neisseria_g: YEAR>
1977

> <ChEMBL_Data_Neisseria_g: JOURNAL>
J. Med. Chem.

> <ChEMBL_Data_Neisseria_g: VOLUME>
20

> <ChEMBL_Data_Neisseria_g: FIRST_PAGE>
1697

> <ChEMBL_Data_Neisseria_g: MIC_vs_Neisseria_microg_per_mL>
100

> <ALogP>
2.859

> <Active>
0

> <Molecular_Weight>
287.335

> <ChEMBL_Data_Neisseria_g: STRAIN_of_Ng>
ATCC 19424

$$$$

Generated by Molecular Materials Informatics

 19 19  0  0  0  0  0  0  0  0999 V2000
   -6.0945    1.8664    0.0000 C   0  0  0  0  0  0  0  0  0  0  0  0
   -5.7825    0.3992    0.0000 N   0  0  0  0  0  0  0  0  0  0  0  0
   -4.4124   -0.2110    0.0000 C   0  0  0  0  0  0  0  0  0  0  0  0
   -3.1133    0.5390    0.0000 S   0  0  0  0  0  0  0  0  0  0  0  0
   -1.8143   -0.2110    0.0000 C   0  0  0  0  0  0  0  0  0  0  0  0
   -0.5152    0.5390    0.0000 C   0  0  0  0  0  0  0  0  0  0  0  0
    0.7836   -0.2110    0.0000 C   0  0  0  0  0  0  0  0  0  0  0  0
    2.0827    0.5390    0.0000 C   0  0  0  0  0  0  0  0  0  0  0  0
    3.3817   -0.2110    0.0000 C   0  0  0  0  0  0  0  0  0  0  0  0
    4.6806    0.5390    0.0000 C   0  0  0  0  0  0  0  0  0  0  0  0
    5.9797   -0.2110    0.0000 C   0  0  0  0  0  0  0  0  0  0  0  0
    7.2787    0.5390    0.0000 O   0  0  0  0  0  0  0  0  0  0  0  0
    5.9797   -1.7110    0.0000 O   0  0  0  0  0  0  0  0  0  0  0  0
   -4.5691   -1.7026    0.0000 N   0  0  0  0  0  0  0  0  0  0  0  0
   -6.0363   -2.0146    0.0000 C   0  0  0  0  0  0  0  0  0  0  0  0
   -6.7863   -0.7155    0.0000 C   0  0  0  0  0  0  0  0  0  0  0  0
   -8.2779   -0.5588    0.0000 N   0  3  0  0  0  0  0  0  0  0  0  0
   -9.1597   -1.7722    0.0000 O   0  0  0  0  0  0  0  0  0  0  0  0
   -8.8881    0.8115    0.0000 O   0  5  0  0  0  0  0  0  0  0  0  0
  1  2  1  0  0  0  0
  2  3  1  0  0  0  0
  3  4  1  0  0  0  0
  4  5  1  0  0  0  0
  5  6  1  0  0  0  0
  6  7  1  0  0  0  0
  7  8  1  0  0  0  0
  8  9  1  0  0  0  0
  9 10  1  0  0  0  0
 10 11  1  0  0  0  0
 11 12  2  0  0  0  0
 11 13  1  0  0  0  0
  3 14  2  0  0  0  0
 14 15  1  0  0  0  0
 15 16  2  0  0  0  0
  2 16  1  0  0  0  0
 16 17  1  0  0  0  0
 17 18  2  0  0  0  0
 17 19  1  0  0  0  0
M  CHG  2  17   1  19  -1
M  END
> <Molecule Name>
CHEMBL3274657

> <IUPAC>
7-[(1-methyl-5-nitro-1H-imidazol-2-yl)sulfanyl]heptanoic acid

> <ChEMBL_Data_Neisseria_g: NUM_RO5_VIOLATIONS>
0

> <ChEMBL_Data_Neisseria_g: Qualifier_for_MIC_Ng>
=

> <ChEMBL_Data_Neisseria_g: ASSAY_CHEMBLID>
CHEMBL3283002

> <ChEMBL_Data_Neisseria_g: DESCRIPTION_of_Assay_Ng>
Antibacterial activity against Neisseria gonorrhoeae ATCC 19424 after 48 hrs by ten-fold serial dilution method

> <ChEMBL_Data_Neisseria_g: PUBMED_ID>
412966

> <ChEMBL_Data_Neisseria_g: YEAR>
1977

> <ChEMBL_Data_Neisseria_g: JOURNAL>
J. Med. Chem.

> <ChEMBL_Data_Neisseria_g: VOLUME>
20

> <ChEMBL_Data_Neisseria_g: FIRST_PAGE>
1697

> <ChEMBL_Data_Neisseria_g: MIC_vs_Neisseria_microg_per_mL>
0.1

> <ALogP>
2.445

> <Active>
1

> <Molecular_Weight>
287.335

> <ChEMBL_Data_Neisseria_g: STRAIN_of_Ng>
ATCC 19424

$$$$

Generated by Molecular Materials Informatics

 18 18  0  0  0  0  0  0  0  0999 V2000
   -4.3341    1.0794    0.0000 C   0  0  0  0  0  0  0  0  0  0  0  0
   -4.0222   -0.3878    0.0000 N   0  0  0  0  0  0  0  0  0  0  0  0
   -2.6519   -0.9978    0.0000 C   0  0  0  0  0  0  0  0  0  0  0  0
   -1.3529   -0.2478    0.0000 S   0  0  0  0  0  0  0  0  0  0  0  0
   -0.0540   -0.9978    0.0000 C   0  0  0  0  0  0  0  0  0  0  0  0
    1.2451   -0.2478    0.0000 C   0  0  0  0  0  0  0  0  0  0  0  0
    2.5441   -0.9978    0.0000 C   0  0  0  0  0  0  0  0  0  0  0  0
    3.8430   -0.2478    0.0000 C   0  0  0  0  0  0  0  0  0  0  0  0
    5.1420   -0.9978    0.0000 C   0  0  0  0  0  0  0  0  0  0  0  0
    6.4411   -0.2478    0.0000 C   0  0  0  0  0  0  0  0  0  0  0  0
    7.7401   -0.9978    0.0000 O   0  0  0  0  0  0  0  0  0  0  0  0
    6.4411    1.2521    0.0000 O   0  0  0  0  0  0  0  0  0  0  0  0
   -2.8086   -2.4896    0.0000 N   0  0  0  0  0  0  0  0  0  0  0  0
   -4.2759   -2.8014    0.0000 C   0  0  0  0  0  0  0  0  0  0  0  0
   -5.0259   -1.5025    0.0000 C   0  0  0  0  0  0  0  0  0  0  0  0
   -6.5176   -1.3456    0.0000 N   0  3  0  0  0  0  0  0  0  0  0  0
   -7.3992   -2.5592    0.0000 O   0  0  0  0  0  0  0  0  0  0  0  0
   -7.1278    0.0247    0.0000 O   0  5  0  0  0  0  0  0  0  0  0  0
  1  2  1  0  0  0  0
  2  3  1  0  0  0  0
  3  4  1  0  0  0  0
  4  5  1  0  0  0  0
  5  6  1  0  0  0  0
  6  7  1  0  0  0  0
  7  8  1  0  0  0  0
  8  9  1  0  0  0  0
  9 10  1  0  0  0  0
 10 11  2  0  0  0  0
 10 12  1  0  0  0  0
  3 13  2  0  0  0  0
 13 14  1  0  0  0  0
 14 15  2  0  0  0  0
  2 15  1  0  0  0  0
 15 16  1  0  0  0  0
 16 17  2  0  0  0  0
 16 18  1  0  0  0  0
M  CHG  2  16   1  18  -1
M  END
> <Molecule Name>
CHEMBL3274656

> <IUPAC>
6-[(1-methyl-5-nitro-1H-imidazol-2-yl)sulfanyl]hexanoic acid

> <ChEMBL_Data_Neisseria_g: NUM_RO5_VIOLATIONS>
0

> <ChEMBL_Data_Neisseria_g: Qualifier_for_MIC_Ng>
=

> <ChEMBL_Data_Neisseria_g: ASSAY_CHEMBLID>
CHEMBL3283002

> <ChEMBL_Data_Neisseria_g: DESCRIPTION_of_Assay_Ng>
Antibacterial activity against Neisseria gonorrhoeae ATCC 19424 after 48 hrs by ten-fold serial dilution method

> <ChEMBL_Data_Neisseria_g: PUBMED_ID>
412966

> <ChEMBL_Data_Neisseria_g: YEAR>
1977

> <ChEMBL_Data_Neisseria_g: JOURNAL>
J. Med. Chem.

> <ChEMBL_Data_Neisseria_g: VOLUME>
20

> <ChEMBL_Data_Neisseria_g: FIRST_PAGE>
1697

> <ChEMBL_Data_Neisseria_g: MIC_vs_Neisseria_microg_per_mL>
0.1

> <ALogP>
1.988

> <Active>
1

> <Molecular_Weight>
273.309

> <ChEMBL_Data_Neisseria_g: STRAIN_of_Ng>
ATCC 19424

$$$$

Generated by Molecular Materials Informatics

 19 19  0  0  0  0  0  0  0  0999 V2000
    2.0325    2.7962    0.0000 C   0  0  0  0  0  0  0  0  0  0  0  0
    2.0325    1.2962    0.0000 N   0  0  0  0  0  0  0  0  0  0  0  0
    3.2460    0.4145    0.0000 C   0  0  0  0  0  0  0  0  0  0  0  0
    2.7825   -1.0122    0.0000 C   0  0  0  0  0  0  0  0  0  0  0  0
    1.2825   -1.0122    0.0000 N   0  0  0  0  0  0  0  0  0  0  0  0
    0.8188    0.4145    0.0000 C   0  0  0  0  0  0  0  0  0  0  0  0
   -0.6077    0.8780    0.0000 S   0  0  0  0  0  0  0  0  0  0  0  0
   -1.0712   -0.5486    0.0000 O   0  0  0  0  0  0  0  0  0  0  0  0
   -0.1443    2.3046    0.0000 O   0  0  0  0  0  0  0  0  0  0  0  0
   -2.0343    1.3415    0.0000 C   0  0  0  0  0  0  0  0  0  0  0  0
   -3.1491    0.3378    0.0000 C   0  0  0  0  0  0  0  0  0  0  0  0
   -4.5756    0.8013    0.0000 C   0  0  0  0  0  0  0  0  0  0  0  0
   -5.6904   -0.2024    0.0000 C   0  0  0  0  0  0  0  0  0  0  0  0
   -7.1172    0.2613    0.0000 C   0  0  0  0  0  0  0  0  0  0  0  0
   -8.2319   -0.7426    0.0000 O   0  0  0  0  0  0  0  0  0  0  0  0
   -7.4290    1.7284    0.0000 O   0  0  0  0  0  0  0  0  0  0  0  0
    4.6726    0.8780    0.0000 N   0  3  0  0  0  0  0  0  0  0  0  0
    4.9844    2.3453    0.0000 O   0  0  0  0  0  0  0  0  0  0  0  0
    5.7873   -0.1257    0.0000 O   0  5  0  0  0  0  0  0  0  0  0  0
  1  2  1  0  0  0  0
  2  3  1  0  0  0  0
  3  4  2  0  0  0  0
  4  5  1  0  0  0  0
  5  6  2  0  0  0  0
  2  6  1  0  0  0  0
  6  7  1  0  0  0  0
  7  8  2  0  0  0  0
  7  9  2  0  0  0  0
  7 10  1  0  0  0  0
 10 11  1  0  0  0  0
 11 12  1  0  0  0  0
 12 13  1  0  0  0  0
 13 14  1  0  0  0  0
 14 15  2  0  0  0  0
 14 16  1  0  0  0  0
  3 17  1  0  0  0  0
 17 18  2  0  0  0  0
 17 19  1  0  0  0  0
M  CHG  2  17   1  19  -1
M  END
> <Molecule Name>
CHEMBL3274655

> <IUPAC>
5-[(1-methyl-5-nitro-1H-imidazol-2-yl)sulfonyl]pentanoic acid

> <ChEMBL_Data_Neisseria_g: NUM_RO5_VIOLATIONS>
0

> <ChEMBL_Data_Neisseria_g: Qualifier_for_MIC_Ng>
=

> <ChEMBL_Data_Neisseria_g: ASSAY_CHEMBLID>
CHEMBL3283002

> <ChEMBL_Data_Neisseria_g: DESCRIPTION_of_Assay_Ng>
Antibacterial activity against Neisseria gonorrhoeae ATCC 19424 after 48 hrs by ten-fold serial dilution method

> <ChEMBL_Data_Neisseria_g: PUBMED_ID>
412966

> <ChEMBL_Data_Neisseria_g: YEAR>
1977

> <ChEMBL_Data_Neisseria_g: JOURNAL>
J. Med. Chem.

> <ChEMBL_Data_Neisseria_g: VOLUME>
20

> <ChEMBL_Data_Neisseria_g: FIRST_PAGE>
1697

> <ChEMBL_Data_Neisseria_g: MIC_vs_Neisseria_microg_per_mL>
100

> <ALogP>
0.516

> <Active>
0

> <Molecular_Weight>
291.281

> <ChEMBL_Data_Neisseria_g: STRAIN_of_Ng>
ATCC 19424

$$$$

Generated by Molecular Materials Informatics

 18 18  0  0  0  0  0  0  0  0999 V2000
   -5.5100    1.8276    0.0000 C   0  0  0  0  0  0  0  0  0  0  0  0
   -5.1980    0.3603    0.0000 N   0  0  0  0  0  0  0  0  0  0  0  0
   -3.8278   -0.2498    0.0000 C   0  0  0  0  0  0  0  0  0  0  0  0
   -3.9846   -1.7414    0.0000 N   0  0  0  0  0  0  0  0  0  0  0  0
   -5.4518   -2.0534    0.0000 C   0  0  0  0  0  0  0  0  0  0  0  0
   -6.2018   -0.7544    0.0000 C   0  0  0  0  0  0  0  0  0  0  0  0
   -7.6934   -0.5976    0.0000 N   0  3  0  0  0  0  0  0  0  0  0  0
   -8.5752   -1.8111    0.0000 O   0  0  0  0  0  0  0  0  0  0  0  0
   -8.3035    0.7727    0.0000 O   0  5  0  0  0  0  0  0  0  0  0  0
   -2.5288    0.5002    0.0000 S   0  3  0  0  0  0  0  0  0  0  0  0
   -2.5288    2.0001    0.0000 O   0  5  0  0  0  0  0  0  0  0  0  0
   -1.2297   -0.2498    0.0000 C   0  0  0  0  0  0  0  0  0  0  0  0
    0.0693    0.5002    0.0000 C   0  0  0  0  0  0  0  0  0  0  0  0
    1.3682   -0.2498    0.0000 C   0  0  0  0  0  0  0  0  0  0  0  0
    2.6672    0.5002    0.0000 C   0  0  0  0  0  0  0  0  0  0  0  0
    3.9663   -0.2498    0.0000 C   0  0  0  0  0  0  0  0  0  0  0  0
    5.2652    0.5002    0.0000 O   0  0  0  0  0  0  0  0  0  0  0  0
    3.9663   -1.7498    0.0000 O   0  0  0  0  0  0  0  0  0  0  0  0
  1  2  1  0  0  0  0
  2  3  1  0  0  0  0
  3  4  2  0  0  0  0
  4  5  1  0  0  0  0
  5  6  2  0  0  0  0
  2  6  1  0  0  0  0
  6  7  1  0  0  0  0
  7  8  2  0  0  0  0
  7  9  1  0  0  0  0
  3 10  1  0  0  0  0
 10 11  1  0  0  0  0
 10 12  1  0  0  0  0
 12 13  1  0  0  0  0
 13 14  1  0  0  0  0
 14 15  1  0  0  0  0
 15 16  1  0  0  0  0
 16 17  2  0  0  0  0
 16 18  1  0  0  0  0
M  CHG  4   7   1   9  -1  10   1  11  -1
M  END
> <Molecule Name>
CHEMBL3274654

> <IUPAC>
5-[(1-methyl-5-nitro-1H-imidazol-2-yl)sulfinyl]pentanoic acid

> <ChEMBL_Data_Neisseria_g: NUM_RO5_VIOLATIONS>
0

> <ChEMBL_Data_Neisseria_g: Qualifier_for_MIC_Ng>
=

> <ChEMBL_Data_Neisseria_g: ASSAY_CHEMBLID>
CHEMBL3283002

> <ChEMBL_Data_Neisseria_g: DESCRIPTION_of_Assay_Ng>
Antibacterial activity against Neisseria gonorrhoeae ATCC 19424 after 48 hrs by ten-fold serial dilution method

> <ChEMBL_Data_Neisseria_g: PUBMED_ID>
412966

> <ChEMBL_Data_Neisseria_g: YEAR>
1977

> <ChEMBL_Data_Neisseria_g: JOURNAL>
J. Med. Chem.

> <ChEMBL_Data_Neisseria_g: VOLUME>
20

> <ChEMBL_Data_Neisseria_g: FIRST_PAGE>
1697

> <ChEMBL_Data_Neisseria_g: MIC_vs_Neisseria_microg_per_mL>
100

> <ALogP>
0.738

> <Active>
0

> <Molecular_Weight>
275.282

> <ChEMBL_Data_Neisseria_g: STRAIN_of_Ng>
ATCC 19424

$$$$

Generated by Molecular Materials Informatics

 17 17  0  0  0  0  0  0  0  0999 V2000
   -5.5100    1.8664    0.0000 C   0  0  0  0  0  0  0  0  0  0  0  0
   -5.1980    0.3992    0.0000 N   0  0  0  0  0  0  0  0  0  0  0  0
   -3.8278   -0.2110    0.0000 C   0  0  0  0  0  0  0  0  0  0  0  0
   -2.5288    0.5390    0.0000 S   0  0  0  0  0  0  0  0  0  0  0  0
   -1.2297   -0.2110    0.0000 C   0  0  0  0  0  0  0  0  0  0  0  0
    0.0693    0.5390    0.0000 C   0  0  0  0  0  0  0  0  0  0  0  0
    1.3682   -0.2110    0.0000 C   0  0  0  0  0  0  0  0  0  0  0  0
    2.6672    0.5390    0.0000 C   0  0  0  0  0  0  0  0  0  0  0  0
    3.9663   -0.2110    0.0000 C   0  0  0  0  0  0  0  0  0  0  0  0
    5.2652    0.5390    0.0000 O   0  0  0  0  0  0  0  0  0  0  0  0
    3.9663   -1.7110    0.0000 O   0  0  0  0  0  0  0  0  0  0  0  0
   -3.9846   -1.7026    0.0000 N   0  0  0  0  0  0  0  0  0  0  0  0
   -5.4518   -2.0146    0.0000 C   0  0  0  0  0  0  0  0  0  0  0  0
   -6.2018   -0.7155    0.0000 C   0  0  0  0  0  0  0  0  0  0  0  0
   -7.6934   -0.5588    0.0000 N   0  3  0  0  0  0  0  0  0  0  0  0
   -8.5752   -1.7722    0.0000 O   0  0  0  0  0  0  0  0  0  0  0  0
   -8.3035    0.8115    0.0000 O   0  5  0  0  0  0  0  0  0  0  0  0
  1  2  1  0  0  0  0
  2  3  1  0  0  0  0
  3  4  1  0  0  0  0
  4  5  1  0  0  0  0
  5  6  1  0  0  0  0
  6  7  1  0  0  0  0
  7  8  1  0  0  0  0
  8  9  1  0  0  0  0
  9 10  2  0  0  0  0
  9 11  1  0  0  0  0
  3 12  2  0  0  0  0
 12 13  1  0  0  0  0
 13 14  2  0  0  0  0
  2 14  1  0  0  0  0
 14 15  1  0  0  0  0
 15 16  2  0  0  0  0
 15 17  1  0  0  0  0
M  CHG  2  15   1  17  -1
M  END
> <Molecule Name>
CHEMBL3274653

> <IUPAC>
5-[(1-methyl-5-nitro-1H-imidazol-2-yl)sulfanyl]pentanoic acid

> <ChEMBL_Data_Neisseria_g: NUM_RO5_VIOLATIONS>
0

> <ChEMBL_Data_Neisseria_g: Qualifier_for_MIC_Ng>
=

> <ChEMBL_Data_Neisseria_g: ASSAY_CHEMBLID>
CHEMBL3283002

> <ChEMBL_Data_Neisseria_g: DESCRIPTION_of_Assay_Ng>
Antibacterial activity against Neisseria gonorrhoeae ATCC 19424 after 48 hrs by ten-fold serial dilution method

> <ChEMBL_Data_Neisseria_g: PUBMED_ID>
412966

> <ChEMBL_Data_Neisseria_g: YEAR>
1977

> <ChEMBL_Data_Neisseria_g: JOURNAL>
J. Med. Chem.

> <ChEMBL_Data_Neisseria_g: VOLUME>
20

> <ChEMBL_Data_Neisseria_g: FIRST_PAGE>
1697

> <ChEMBL_Data_Neisseria_g: MIC_vs_Neisseria_microg_per_mL>
1

> <ALogP>
1.532

> <Active>
1

> <Molecular_Weight>
259.282

> <ChEMBL_Data_Neisseria_g: STRAIN_of_Ng>
ATCC 19424

$$$$

Generated by Molecular Materials Informatics

 17 17  0  0  0  0  0  0  0  0999 V2000
    1.4606    2.7962    0.0000 C   0  0  0  0  0  0  0  0  0  0  0  0
    1.4606    1.2962    0.0000 N   0  0  0  0  0  0  0  0  0  0  0  0
    2.6741    0.4145    0.0000 C   0  0  0  0  0  0  0  0  0  0  0  0
    2.2107   -1.0122    0.0000 C   0  0  0  0  0  0  0  0  0  0  0  0
    0.7106   -1.0122    0.0000 N   0  0  0  0  0  0  0  0  0  0  0  0
    0.2470    0.4145    0.0000 C   0  0  0  0  0  0  0  0  0  0  0  0
   -1.1796    0.8780    0.0000 S   0  0  0  0  0  0  0  0  0  0  0  0
   -1.6431   -0.5486    0.0000 O   0  0  0  0  0  0  0  0  0  0  0  0
   -0.7161    2.3046    0.0000 O   0  0  0  0  0  0  0  0  0  0  0  0
   -2.6062    1.3415    0.0000 C   0  0  0  0  0  0  0  0  0  0  0  0
   -3.7209    0.3378    0.0000 C   0  0  0  0  0  0  0  0  0  0  0  0
   -5.1475    0.8013    0.0000 C   0  0  0  0  0  0  0  0  0  0  0  0
   -6.2623   -0.2024    0.0000 O   0  0  0  0  0  0  0  0  0  0  0  0
   -5.4595    2.2686    0.0000 O   0  0  0  0  0  0  0  0  0  0  0  0
    4.1007    0.8780    0.0000 N   0  3  0  0  0  0  0  0  0  0  0  0
    4.4125    2.3453    0.0000 O   0  0  0  0  0  0  0  0  0  0  0  0
    5.2155   -0.1257    0.0000 O   0  5  0  0  0  0  0  0  0  0  0  0
  1  2  1  0  0  0  0
  2  3  1  0  0  0  0
  3  4  2  0  0  0  0
  4  5  1  0  0  0  0
  5  6  2  0  0  0  0
  2  6  1  0  0  0  0
  6  7  1  0  0  0  0
  7  8  2  0  0  0  0
  7  9  2  0  0  0  0
  7 10  1  0  0  0  0
 10 11  1  0  0  0  0
 11 12  1  0  0  0  0
 12 13  2  0  0  0  0
 12 14  1  0  0  0  0
  3 15  1  0  0  0  0
 15 16  2  0  0  0  0
 15 17  1  0  0  0  0
M  CHG  2  15   1  17  -1
M  END
> <Molecule Name>
CHEMBL3274652

> <IUPAC>
3-[(1-methyl-5-nitro-1H-imidazol-2-yl)sulfonyl]propanoic acid

> <ChEMBL_Data_Neisseria_g: NUM_RO5_VIOLATIONS>
0

> <ChEMBL_Data_Neisseria_g: Qualifier_for_MIC_Ng>
=

> <ChEMBL_Data_Neisseria_g: ASSAY_CHEMBLID>
CHEMBL3283002

> <ChEMBL_Data_Neisseria_g: DESCRIPTION_of_Assay_Ng>
Antibacterial activity against Neisseria gonorrhoeae ATCC 19424 after 48 hrs by ten-fold serial dilution method

> <ChEMBL_Data_Neisseria_g: PUBMED_ID>
412966

> <ChEMBL_Data_Neisseria_g: YEAR>
1977

> <ChEMBL_Data_Neisseria_g: JOURNAL>
J. Med. Chem.

> <ChEMBL_Data_Neisseria_g: VOLUME>
20

> <ChEMBL_Data_Neisseria_g: FIRST_PAGE>
1697

> <ChEMBL_Data_Neisseria_g: MIC_vs_Neisseria_microg_per_mL>
100

> <ALogP>
-0.261

> <Active>
0

> <Molecular_Weight>
263.228

> <ChEMBL_Data_Neisseria_g: STRAIN_of_Ng>
ATCC 19424

$$$$

Generated by Molecular Materials Informatics

 16 16  0  0  0  0  0  0  0  0999 V2000
   -4.9255    1.8276    0.0000 C   0  0  0  0  0  0  0  0  0  0  0  0
   -4.6135    0.3603    0.0000 N   0  0  0  0  0  0  0  0  0  0  0  0
   -3.2433   -0.2498    0.0000 C   0  0  0  0  0  0  0  0  0  0  0  0
   -3.4001   -1.7414    0.0000 N   0  0  0  0  0  0  0  0  0  0  0  0
   -4.8673   -2.0534    0.0000 C   0  0  0  0  0  0  0  0  0  0  0  0
   -5.6173   -0.7544    0.0000 C   0  0  0  0  0  0  0  0  0  0  0  0
   -7.1089   -0.5976    0.0000 N   0  3  0  0  0  0  0  0  0  0  0  0
   -7.9906   -1.8111    0.0000 O   0  0  0  0  0  0  0  0  0  0  0  0
   -7.7190    0.7727    0.0000 O   0  5  0  0  0  0  0  0  0  0  0  0
   -1.9443    0.5002    0.0000 S   0  3  0  0  0  0  0  0  0  0  0  0
   -1.9443    2.0001    0.0000 O   0  5  0  0  0  0  0  0  0  0  0  0
   -0.6452   -0.2498    0.0000 C   0  0  0  0  0  0  0  0  0  0  0  0
    0.6538    0.5002    0.0000 C   0  0  0  0  0  0  0  0  0  0  0  0
    1.9527   -0.2498    0.0000 C   0  0  0  0  0  0  0  0  0  0  0  0
    3.2517    0.5002    0.0000 O   0  0  0  0  0  0  0  0  0  0  0  0
    1.9527   -1.7498    0.0000 O   0  0  0  0  0  0  0  0  0  0  0  0
  1  2  1  0  0  0  0
  2  3  1  0  0  0  0
  3  4  2  0  0  0  0
  4  5  1  0  0  0  0
  5  6  2  0  0  0  0
  2  6  1  0  0  0  0
  6  7  1  0  0  0  0
  7  8  2  0  0  0  0
  7  9  1  0  0  0  0
  3 10  1  0  0  0  0
 10 11  1  0  0  0  0
 10 12  1  0  0  0  0
 12 13  1  0  0  0  0
 13 14  1  0  0  0  0
 14 15  2  0  0  0  0
 14 16  1  0  0  0  0
M  CHG  4   7   1   9  -1  10   1  11  -1
M  END
> <Molecule Name>
CHEMBL3274651

> <IUPAC>
3-[(1-methyl-5-nitro-1H-imidazol-2-yl)sulfinyl]propanoic acid

> <ChEMBL_Data_Neisseria_g: NUM_RO5_VIOLATIONS>
0

> <ChEMBL_Data_Neisseria_g: Qualifier_for_MIC_Ng>
>

> <ChEMBL_Data_Neisseria_g: ASSAY_CHEMBLID>
CHEMBL3283002

> <ChEMBL_Data_Neisseria_g: DESCRIPTION_of_Assay_Ng>
Antibacterial activity against Neisseria gonorrhoeae ATCC 19424 after 48 hrs by ten-fold serial dilution method

> <ChEMBL_Data_Neisseria_g: PUBMED_ID>
412966

> <ChEMBL_Data_Neisseria_g: YEAR>
1977

> <ChEMBL_Data_Neisseria_g: JOURNAL>
J. Med. Chem.

> <ChEMBL_Data_Neisseria_g: VOLUME>
20

> <ChEMBL_Data_Neisseria_g: FIRST_PAGE>
1697

> <ChEMBL_Data_Neisseria_g: MIC_vs_Neisseria_microg_per_mL>
100

> <ALogP>
-0.039

> <Active>
0

> <Molecular_Weight>
247.228

> <ChEMBL_Data_Neisseria_g: STRAIN_of_Ng>
ATCC 19424

$$$$

Generated by Molecular Materials Informatics

 15 15  0  0  0  0  0  0  0  0999 V2000
   -4.9255    1.8664    0.0000 C   0  0  0  0  0  0  0  0  0  0  0  0
   -4.6135    0.3992    0.0000 N   0  0  0  0  0  0  0  0  0  0  0  0
   -3.2433   -0.2110    0.0000 C   0  0  0  0  0  0  0  0  0  0  0  0
   -1.9443    0.5390    0.0000 S   0  0  0  0  0  0  0  0  0  0  0  0
   -0.6452   -0.2110    0.0000 C   0  0  0  0  0  0  0  0  0  0  0  0
    0.6538    0.5390    0.0000 C   0  0  0  0  0  0  0  0  0  0  0  0
    1.9527   -0.2110    0.0000 C   0  0  0  0  0  0  0  0  0  0  0  0
    3.2517    0.5390    0.0000 O   0  0  0  0  0  0  0  0  0  0  0  0
    1.9527   -1.7110    0.0000 O   0  0  0  0  0  0  0  0  0  0  0  0
   -3.4001   -1.7026    0.0000 N   0  0  0  0  0  0  0  0  0  0  0  0
   -4.8673   -2.0146    0.0000 C   0  0  0  0  0  0  0  0  0  0  0  0
   -5.6173   -0.7155    0.0000 C   0  0  0  0  0  0  0  0  0  0  0  0
   -7.1089   -0.5588    0.0000 N   0  3  0  0  0  0  0  0  0  0  0  0
   -7.9906   -1.7722    0.0000 O   0  0  0  0  0  0  0  0  0  0  0  0
   -7.7190    0.8115    0.0000 O   0  5  0  0  0  0  0  0  0  0  0  0
  1  2  1  0  0  0  0
  2  3  1  0  0  0  0
  3  4  1  0  0  0  0
  4  5  1  0  0  0  0
  5  6  1  0  0  0  0
  6  7  1  0  0  0  0
  7  8  2  0  0  0  0
  7  9  1  0  0  0  0
  3 10  2  0  0  0  0
 10 11  1  0  0  0  0
 11 12  2  0  0  0  0
  2 12  1  0  0  0  0
 12 13  1  0  0  0  0
 13 14  2  0  0  0  0
 13 15  1  0  0  0  0
M  CHG  2  13   1  15  -1
M  END
> <Molecule Name>
CHEMBL3274650

> <IUPAC>
3-[(1-methyl-5-nitro-1H-imidazol-2-yl)sulfanyl]propanoic acid

> <ChEMBL_Data_Neisseria_g: NUM_RO5_VIOLATIONS>
0

> <ChEMBL_Data_Neisseria_g: Qualifier_for_MIC_Ng>
=

> <ChEMBL_Data_Neisseria_g: ASSAY_CHEMBLID>
CHEMBL3283002

> <ChEMBL_Data_Neisseria_g: DESCRIPTION_of_Assay_Ng>
Antibacterial activity against Neisseria gonorrhoeae ATCC 19424 after 48 hrs by ten-fold serial dilution method

> <ChEMBL_Data_Neisseria_g: PUBMED_ID>
412966

> <ChEMBL_Data_Neisseria_g: YEAR>
1977

> <ChEMBL_Data_Neisseria_g: JOURNAL>
J. Med. Chem.

> <ChEMBL_Data_Neisseria_g: VOLUME>
20

> <ChEMBL_Data_Neisseria_g: FIRST_PAGE>
1697

> <ChEMBL_Data_Neisseria_g: MIC_vs_Neisseria_microg_per_mL>
10

> <ALogP>
0.755

> <Active>
0

> <Molecular_Weight>
231.229

> <ChEMBL_Data_Neisseria_g: STRAIN_of_Ng>
ATCC 19424

$$$$

Generated by Molecular Materials Informatics

 35 36  0  0  0  0  0  0  0  0999 V2000
   -8.8945   -2.7494    0.0000 C   0  0  0  0  0  0  0  0  0  0  0  0
   -8.8945   -1.2495    0.0000 C   0  0  0  0  0  0  0  0  0  0  0  0
   -7.5954   -0.4995    0.0000 O   0  0  0  0  0  0  0  0  0  0  0  0
   -7.5954    1.0004    0.0000 C   0  0  0  0  0  0  0  0  0  0  0  0
   -8.8945    1.7504    0.0000 O   0  0  0  0  0  0  0  0  0  0  0  0
   -6.2964    1.7504    0.0000 C   0  0  0  0  0  0  0  0  0  0  0  0
   -6.2964    3.2504    0.0000 C   0  0  0  0  0  0  0  0  0  0  0  0
   -4.9975    4.0004    0.0000 C   0  0  0  0  0  0  0  0  0  0  0  0
   -3.6985    3.2504    0.0000 C   0  0  0  0  0  0  0  0  0  0  0  0
   -2.3994    4.0004    0.0000 O   0  0  0  0  0  0  0  0  0  0  0  0
   -1.1005    3.2504    0.0000 C   0  0  0  0  0  0  0  0  0  0  0  0
    0.1985    4.0004    0.0000 C   0  0  0  0  0  0  0  0  0  0  0  0
    1.4976    3.2504    0.0000 C   0  0  0  0  0  0  0  0  0  0  0  0
    2.7966    4.0004    0.0000 C   0  0  0  0  0  0  0  0  0  0  0  0
    4.0955    3.2504    0.0000 C   0  0  0  0  0  0  0  0  0  0  0  0
    5.3945    4.0004    0.0000 C   0  0  0  0  0  0  0  0  0  0  0  0
    6.6936    3.2504    0.0000 C   0  0  0  0  0  0  0  0  0  0  0  0
    7.9925    4.0004    0.0000 C   0  0  0  0  0  0  0  0  0  0  0  0
    9.2915    3.2504    0.0000 C   0  0  0  0  0  0  0  0  0  0  0  0
   10.5906    4.0004    0.0000 C   0  0  0  0  0  0  0  0  0  0  0  0
   11.8896    3.2504    0.0000 S   0  0  0  0  0  0  0  0  0  0  0  0
   13.1885    4.0004    0.0000 C   0  0  0  0  0  0  0  0  0  0  0  0
   13.3454    5.4921    0.0000 N   0  0  0  0  0  0  0  0  0  0  0  0
   14.8124    5.8039    0.0000 C   0  0  0  0  0  0  0  0  0  0  0  0
   15.5624    4.5049    0.0000 C   0  0  0  0  0  0  0  0  0  0  0  0
   17.0542    4.3482    0.0000 N   0  3  0  0  0  0  0  0  0  0  0  0
   17.9358    5.5616    0.0000 O   0  0  0  0  0  0  0  0  0  0  0  0
   17.6643    2.9778    0.0000 O   0  5  0  0  0  0  0  0  0  0  0  0
   14.5588    3.3902    0.0000 N   0  0  0  0  0  0  0  0  0  0  0  0
   14.8706    1.9231    0.0000 C   0  0  0  0  0  0  0  0  0  0  0  0
   -3.6985    1.7504    0.0000 C   0  0  0  0  0  0  0  0  0  0  0  0
   -4.9975    1.0004    0.0000 C   0  0  0  0  0  0  0  0  0  0  0  0
   -2.3994    1.0004    0.0000 N   0  3  0  0  0  0  0  0  0  0  0  0
   -2.3994   -0.4995    0.0000 O   0  0  0  0  0  0  0  0  0  0  0  0
   -1.1005    1.7504    0.0000 O   0  5  0  0  0  0  0  0  0  0  0  0
  1  2  1  0  0  0  0
  2  3  1  0  0  0  0
  3  4  1  0  0  0  0
  4  5  2  0  0  0  0
  4  6  1  0  0  0  0
  6  7  2  0  0  0  0
  7  8  1  0  0  0  0
  8  9  2  0  0  0  0
  9 10  1  0  0  0  0
 10 11  1  0  0  0  0
 11 12  1  0  0  0  0
 12 13  1  0  0  0  0
 13 14  1  0  0  0  0
 14 15  1  0  0  0  0
 15 16  1  0  0  0  0
 16 17  1  0  0  0  0
 17 18  1  0  0  0  0
 18 19  1  0  0  0  0
 19 20  1  0  0  0  0
 20 21  1  0  0  0  0
 21 22  1  0  0  0  0
 22 23  2  0  0  0  0
 23 24  1  0  0  0  0
 24 25  2  0  0  0  0
 25 26  1  0  0  0  0
 26 27  2  0  0  0  0
 26 28  1  0  0  0  0
 25 29  1  0  0  0  0
 22 29  1  0  0  0  0
 29 30  1  0  0  0  0
  9 31  1  0  0  0  0
 31 32  2  0  0  0  0
  6 32  1  0  0  0  0
 31 33  1  0  0  0  0
 33 34  2  0  0  0  0
 33 35  1  0  0  0  0
M  CHG  4  26   1  28  -1  33   1  35  -1
M  END
> <Molecule Name>
CHEMBL3274649

> <IUPAC>
ethyl 4-({10-[(1-methyl-5-nitro-1H-imidazol-2-yl)sulfanyl]decyl}oxy)-3-nitrobenzoate

> <ChEMBL_Data_Neisseria_g: NUM_RO5_VIOLATIONS>
2

> <ChEMBL_Data_Neisseria_g: Qualifier_for_MIC_Ng>
>

> <ChEMBL_Data_Neisseria_g: ASSAY_CHEMBLID>
CHEMBL3283002

> <ChEMBL_Data_Neisseria_g: DESCRIPTION_of_Assay_Ng>
Antibacterial activity against Neisseria gonorrhoeae ATCC 19424 after 48 hrs by ten-fold serial dilution method

> <ChEMBL_Data_Neisseria_g: PUBMED_ID>
412966

> <ChEMBL_Data_Neisseria_g: YEAR>
1977

> <ChEMBL_Data_Neisseria_g: JOURNAL>
J. Med. Chem.

> <ChEMBL_Data_Neisseria_g: VOLUME>
20

> <ChEMBL_Data_Neisseria_g: FIRST_PAGE>
1697

> <ChEMBL_Data_Neisseria_g: MIC_vs_Neisseria_microg_per_mL>
100

> <ALogP>
6.135

> <Active>
0

> <Molecular_Weight>
508.588

> <ChEMBL_Data_Neisseria_g: STRAIN_of_Ng>
ATCC 19424

$$$$

Generated by Molecular Materials Informatics

 29 30  0  0  0  0  0  0  0  0999 V2000
   -5.5500   -4.6018    0.0000 C   0  0  0  0  0  0  0  0  0  0  0  0
   -5.2382   -3.1348    0.0000 N   0  0  0  0  0  0  0  0  0  0  0  0
   -6.2418   -2.0201    0.0000 C   0  0  0  0  0  0  0  0  0  0  0  0
   -5.4918   -0.7210    0.0000 C   0  0  0  0  0  0  0  0  0  0  0  0
   -4.0248   -1.0328    0.0000 N   0  0  0  0  0  0  0  0  0  0  0  0
   -3.8679   -2.5246    0.0000 C   0  0  0  0  0  0  0  0  0  0  0  0
   -2.5690   -3.2746    0.0000 S   0  0  0  0  0  0  0  0  0  0  0  0
   -1.8191   -1.9755    0.0000 O   0  0  0  0  0  0  0  0  0  0  0  0
   -3.3190   -4.5736    0.0000 O   0  0  0  0  0  0  0  0  0  0  0  0
   -1.2700   -4.0246    0.0000 C   0  0  0  0  0  0  0  0  0  0  0  0
    0.0291   -3.2746    0.0000 C   0  0  0  0  0  0  0  0  0  0  0  0
    1.3279   -4.0246    0.0000 C   0  0  0  0  0  0  0  0  0  0  0  0
    2.6270   -3.2746    0.0000 C   0  0  0  0  0  0  0  0  0  0  0  0
    3.9260   -4.0246    0.0000 C   0  0  0  0  0  0  0  0  0  0  0  0
    5.2251   -3.2746    0.0000 C   0  0  0  0  0  0  0  0  0  0  0  0
    6.5240   -4.0246    0.0000 C   0  0  0  0  0  0  0  0  0  0  0  0
    7.8230   -3.2746    0.0000 O   0  0  0  0  0  0  0  0  0  0  0  0
    9.1221   -4.0246    0.0000 C   0  0  0  0  0  0  0  0  0  0  0  0
   10.4209   -3.2746    0.0000 C   0  0  0  0  0  0  0  0  0  0  0  0
   11.7200   -4.0246    0.0000 C   0  0  0  0  0  0  0  0  0  0  0  0
   11.7200   -5.5245    0.0000 C   0  0  0  0  0  0  0  0  0  0  0  0
   10.4209   -6.2745    0.0000 C   0  0  0  0  0  0  0  0  0  0  0  0
    9.1221   -5.5245    0.0000 C   0  0  0  0  0  0  0  0  0  0  0  0
    7.8230   -6.2745    0.0000 N   0  3  0  0  0  0  0  0  0  0  0  0
    6.5240   -5.5245    0.0000 O   0  0  0  0  0  0  0  0  0  0  0  0
    7.8230   -7.7745    0.0000 O   0  5  0  0  0  0  0  0  0  0  0  0
   -7.7336   -2.1768    0.0000 N   0  3  0  0  0  0  0  0  0  0  0  0
   -8.3438   -3.5471    0.0000 O   0  0  0  0  0  0  0  0  0  0  0  0
   -8.6154   -0.9634    0.0000 O   0  5  0  0  0  0  0  0  0  0  0  0
  1  2  1  0  0  0  0
  2  3  1  0  0  0  0
  3  4  2  0  0  0  0
  4  5  1  0  0  0  0
  5  6  2  0  0  0  0
  2  6  1  0  0  0  0
  6  7  1  0  0  0  0
  7  8  2  0  0  0  0
  7  9  2  0  0  0  0
  7 10  1  0  0  0  0
 10 11  1  0  0  0  0
 11 12  1  0  0  0  0
 12 13  1  0  0  0  0
 13 14  1  0  0  0  0
 14 15  1  0  0  0  0
 15 16  1  0  0  0  0
 16 17  1  0  0  0  0
 17 18  1  0  0  0  0
 18 19  2  0  0  0  0
 19 20  1  0  0  0  0
 20 21  2  0  0  0  0
 21 22  1  0  0  0  0
 22 23  2  0  0  0  0
 18 23  1  0  0  0  0
 23 24  1  0  0  0  0
 24 25  2  0  0  0  0
 24 26  1  0  0  0  0
  3 27  1  0  0  0  0
 27 28  2  0  0  0  0
 27 29  1  0  0  0  0
M  CHG  4  24   1  26  -1  27   1  29  -1
M  END
> <Molecule Name>
CHEMBL3274648

> <IUPAC>
1-methyl-5-nitro-2-[7-(2-nitrophenoxy)heptanesulfonyl]-1H-imidazole

> <ChEMBL_Data_Neisseria_g: NUM_RO5_VIOLATIONS>
0

> <ChEMBL_Data_Neisseria_g: Qualifier_for_MIC_Ng>
>

> <ChEMBL_Data_Neisseria_g: ASSAY_CHEMBLID>
CHEMBL3283002

> <ChEMBL_Data_Neisseria_g: DESCRIPTION_of_Assay_Ng>
Antibacterial activity against Neisseria gonorrhoeae ATCC 19424 after 48 hrs by ten-fold serial dilution method

> <ChEMBL_Data_Neisseria_g: PUBMED_ID>
412966

> <ChEMBL_Data_Neisseria_g: YEAR>
1977

> <ChEMBL_Data_Neisseria_g: JOURNAL>
J. Med. Chem.

> <ChEMBL_Data_Neisseria_g: VOLUME>
20

> <ChEMBL_Data_Neisseria_g: FIRST_PAGE>
1697

> <ChEMBL_Data_Neisseria_g: MIC_vs_Neisseria_microg_per_mL>
100

> <ALogP>
3.547

> <Active>
0

> <Molecular_Weight>
426.444

> <ChEMBL_Data_Neisseria_g: STRAIN_of_Ng>
ATCC 19424

$$$$

Generated by Molecular Materials Informatics

 28 29  0  0  0  0  0  0  0  0999 V2000
   -1.2634   -4.1853    0.0000 C   0  0  0  0  0  0  0  0  0  0  0  0
   -0.9515   -5.6523    0.0000 N   0  0  0  0  0  0  0  0  0  0  0  0
    0.4188   -6.2625    0.0000 C   0  0  0  0  0  0  0  0  0  0  0  0
    0.2619   -7.7543    0.0000 N   0  0  0  0  0  0  0  0  0  0  0  0
   -1.2052   -8.0661    0.0000 C   0  0  0  0  0  0  0  0  0  0  0  0
   -1.9552   -6.7670    0.0000 C   0  0  0  0  0  0  0  0  0  0  0  0
   -3.4469   -6.6103    0.0000 N   0  3  0  0  0  0  0  0  0  0  0  0
   -4.3286   -7.8238    0.0000 O   0  0  0  0  0  0  0  0  0  0  0  0
   -4.0571   -5.2400    0.0000 O   0  5  0  0  0  0  0  0  0  0  0  0
    1.7179   -5.5125    0.0000 S   0  3  0  0  0  0  0  0  0  0  0  0
    1.7179   -4.0126    0.0000 O   0  5  0  0  0  0  0  0  0  0  0  0
    3.0167   -6.2625    0.0000 C   0  0  0  0  0  0  0  0  0  0  0  0
    4.3158   -5.5125    0.0000 C   0  0  0  0  0  0  0  0  0  0  0  0
    5.6149   -6.2625    0.0000 C   0  0  0  0  0  0  0  0  0  0  0  0
    6.9138   -5.5125    0.0000 C   0  0  0  0  0  0  0  0  0  0  0  0
    8.2128   -6.2625    0.0000 C   0  0  0  0  0  0  0  0  0  0  0  0
    9.5119   -5.5125    0.0000 C   0  0  0  0  0  0  0  0  0  0  0  0
   10.8110   -6.2625    0.0000 C   0  0  0  0  0  0  0  0  0  0  0  0
   12.1098   -5.5125    0.0000 O   0  0  0  0  0  0  0  0  0  0  0  0
   13.4089   -6.2625    0.0000 C   0  0  0  0  0  0  0  0  0  0  0  0
   14.7080   -5.5125    0.0000 C   0  0  0  0  0  0  0  0  0  0  0  0
   16.0069   -6.2625    0.0000 C   0  0  0  0  0  0  0  0  0  0  0  0
   16.0069   -7.7625    0.0000 C   0  0  0  0  0  0  0  0  0  0  0  0
   14.7080   -8.5125    0.0000 C   0  0  0  0  0  0  0  0  0  0  0  0
   13.4089   -7.7625    0.0000 C   0  0  0  0  0  0  0  0  0  0  0  0
   12.1098   -8.5125    0.0000 N   0  3  0  0  0  0  0  0  0  0  0  0
   10.8110   -7.7625    0.0000 O   0  0  0  0  0  0  0  0  0  0  0  0
   12.1098  -10.0124    0.0000 O   0  5  0  0  0  0  0  0  0  0  0  0
  1  2  1  0  0  0  0
  2  3  1  0  0  0  0
  3  4  2  0  0  0  0
  4  5  1  0  0  0  0
  5  6  2  0  0  0  0
  2  6  1  0  0  0  0
  6  7  1  0  0  0  0
  7  8  2  0  0  0  0
  7  9  1  0  0  0  0
  3 10  1  0  0  0  0
 10 11  1  0  0  0  0
 10 12  1  0  0  0  0
 12 13  1  0  0  0  0
 13 14  1  0  0  0  0
 14 15  1  0  0  0  0
 15 16  1  0  0  0  0
 16 17  1  0  0  0  0
 17 18  1  0  0  0  0
 18 19  1  0  0  0  0
 19 20  1  0  0  0  0
 20 21  2  0  0  0  0
 21 22  1  0  0  0  0
 22 23  2  0  0  0  0
 23 24  1  0  0  0  0
 24 25  2  0  0  0  0
 20 25  1  0  0  0  0
 25 26  1  0  0  0  0
 26 27  2  0  0  0  0
 26 28  1  0  0  0  0
M  CHG  6   7   1   9  -1  10   1  11  -1  26   1  28  -1
M  END
> <Molecule Name>
CHEMBL3274647

> <IUPAC>
1-methyl-5-nitro-2-[7-(2-nitrophenoxy)heptanesulfinyl]-1H-imidazole

> <ChEMBL_Data_Neisseria_g: NUM_RO5_VIOLATIONS>
0

> <ChEMBL_Data_Neisseria_g: Qualifier_for_MIC_Ng>
>

> <ChEMBL_Data_Neisseria_g: ASSAY_CHEMBLID>
CHEMBL3283002

> <ChEMBL_Data_Neisseria_g: DESCRIPTION_of_Assay_Ng>
Antibacterial activity against Neisseria gonorrhoeae ATCC 19424 after 48 hrs by ten-fold serial dilution method

> <ChEMBL_Data_Neisseria_g: PUBMED_ID>
412966

> <ChEMBL_Data_Neisseria_g: YEAR>
1977

> <ChEMBL_Data_Neisseria_g: JOURNAL>
J. Med. Chem.

> <ChEMBL_Data_Neisseria_g: VOLUME>
20

> <ChEMBL_Data_Neisseria_g: FIRST_PAGE>
1697

> <ChEMBL_Data_Neisseria_g: MIC_vs_Neisseria_microg_per_mL>
100

> <ALogP>
3.769

> <Active>
0

> <Molecular_Weight>
410.445

> <ChEMBL_Data_Neisseria_g: STRAIN_of_Ng>
ATCC 19424

$$$$

Generated by Molecular Materials Informatics

 27 28  0  0  0  0  0  0  0  0999 V2000
   -1.2633   -4.1464    0.0000 C   0  0  0  0  0  0  0  0  0  0  0  0
   -0.9515   -5.6135    0.0000 N   0  0  0  0  0  0  0  0  0  0  0  0
    0.4188   -6.2237    0.0000 C   0  0  0  0  0  0  0  0  0  0  0  0
    1.7179   -5.4737    0.0000 S   0  0  0  0  0  0  0  0  0  0  0  0
    3.0168   -6.2237    0.0000 C   0  0  0  0  0  0  0  0  0  0  0  0
    4.3158   -5.4737    0.0000 C   0  0  0  0  0  0  0  0  0  0  0  0
    5.6149   -6.2237    0.0000 C   0  0  0  0  0  0  0  0  0  0  0  0
    6.9138   -5.4737    0.0000 C   0  0  0  0  0  0  0  0  0  0  0  0
    8.2128   -6.2237    0.0000 C   0  0  0  0  0  0  0  0  0  0  0  0
    9.5119   -5.4737    0.0000 C   0  0  0  0  0  0  0  0  0  0  0  0
   10.8109   -6.2237    0.0000 C   0  0  0  0  0  0  0  0  0  0  0  0
   12.1098   -5.4737    0.0000 O   0  0  0  0  0  0  0  0  0  0  0  0
   13.4089   -6.2237    0.0000 C   0  0  0  0  0  0  0  0  0  0  0  0
   14.7079   -5.4737    0.0000 C   0  0  0  0  0  0  0  0  0  0  0  0
   16.0068   -6.2237    0.0000 C   0  0  0  0  0  0  0  0  0  0  0  0
   16.0068   -7.7236    0.0000 C   0  0  0  0  0  0  0  0  0  0  0  0
   14.7079   -8.4736    0.0000 C   0  0  0  0  0  0  0  0  0  0  0  0
   13.4089   -7.7236    0.0000 C   0  0  0  0  0  0  0  0  0  0  0  0
   12.1098   -8.4736    0.0000 N   0  3  0  0  0  0  0  0  0  0  0  0
   10.8109   -7.7236    0.0000 O   0  0  0  0  0  0  0  0  0  0  0  0
   12.1098   -9.9736    0.0000 O   0  5  0  0  0  0  0  0  0  0  0  0
    0.2619   -7.7154    0.0000 N   0  0  0  0  0  0  0  0  0  0  0  0
   -1.2051   -8.0272    0.0000 C   0  0  0  0  0  0  0  0  0  0  0  0
   -1.9551   -6.7282    0.0000 C   0  0  0  0  0  0  0  0  0  0  0  0
   -3.4469   -6.5715    0.0000 N   0  3  0  0  0  0  0  0  0  0  0  0
   -4.3285   -7.7849    0.0000 O   0  0  0  0  0  0  0  0  0  0  0  0
   -4.0571   -5.2011    0.0000 O   0  5  0  0  0  0  0  0  0  0  0  0
  1  2  1  0  0  0  0
  2  3  1  0  0  0  0
  3  4  1  0  0  0  0
  4  5  1  0  0  0  0
  5  6  1  0  0  0  0
  6  7  1  0  0  0  0
  7  8  1  0  0  0  0
  8  9  1  0  0  0  0
  9 10  1  0  0  0  0
 10 11  1  0  0  0  0
 11 12  1  0  0  0  0
 12 13  1  0  0  0  0
 13 14  2  0  0  0  0
 14 15  1  0  0  0  0
 15 16  2  0  0  0  0
 16 17  1  0  0  0  0
 17 18  2  0  0  0  0
 13 18  1  0  0  0  0
 18 19  1  0  0  0  0
 19 20  2  0  0  0  0
 19 21  1  0  0  0  0
  3 22  2  0  0  0  0
 22 23  1  0  0  0  0
 23 24  2  0  0  0  0
  2 24  1  0  0  0  0
 24 25  1  0  0  0  0
 25 26  2  0  0  0  0
 25 27  1  0  0  0  0
M  CHG  4  19   1  21  -1  25   1  27  -1
M  END
> <Molecule Name>
CHEMBL3274646

> <IUPAC>
1-methyl-5-nitro-2-{[7-(2-nitrophenoxy)heptyl]sulfanyl}-1H-imidazole

> <ChEMBL_Data_Neisseria_g: NUM_RO5_VIOLATIONS>
0

> <ChEMBL_Data_Neisseria_g: Qualifier_for_MIC_Ng>
>

> <ChEMBL_Data_Neisseria_g: ASSAY_CHEMBLID>
CHEMBL3283002

> <ChEMBL_Data_Neisseria_g: DESCRIPTION_of_Assay_Ng>
Antibacterial activity against Neisseria gonorrhoeae ATCC 19424 after 48 hrs by ten-fold serial dilution method

> <ChEMBL_Data_Neisseria_g: PUBMED_ID>
412966

> <ChEMBL_Data_Neisseria_g: YEAR>
1977

> <ChEMBL_Data_Neisseria_g: JOURNAL>
J. Med. Chem.

> <ChEMBL_Data_Neisseria_g: VOLUME>
20

> <ChEMBL_Data_Neisseria_g: FIRST_PAGE>
1697

> <ChEMBL_Data_Neisseria_g: MIC_vs_Neisseria_microg_per_mL>
100

> <ALogP>
4.563

> <Active>
0

> <Molecular_Weight>
394.445

> <ChEMBL_Data_Neisseria_g: STRAIN_of_Ng>
ATCC 19424

$$$$

Generated by Molecular Materials Informatics

 31 32  0  0  0  0  0  0  0  0999 V2000
   -7.7255   -2.7495    0.0000 C   0  0  0  0  0  0  0  0  0  0  0  0
   -7.7255   -1.2495    0.0000 C   0  0  0  0  0  0  0  0  0  0  0  0
   -6.4264   -0.4995    0.0000 O   0  0  0  0  0  0  0  0  0  0  0  0
   -6.4264    1.0004    0.0000 C   0  0  0  0  0  0  0  0  0  0  0  0
   -7.7255    1.7504    0.0000 O   0  0  0  0  0  0  0  0  0  0  0  0
   -5.1274    1.7504    0.0000 C   0  0  0  0  0  0  0  0  0  0  0  0
   -5.1274    3.2504    0.0000 C   0  0  0  0  0  0  0  0  0  0  0  0
   -3.8285    4.0004    0.0000 C   0  0  0  0  0  0  0  0  0  0  0  0
   -2.5294    3.2504    0.0000 C   0  0  0  0  0  0  0  0  0  0  0  0
   -1.2304    4.0004    0.0000 O   0  0  0  0  0  0  0  0  0  0  0  0
    0.0685    3.2504    0.0000 C   0  0  0  0  0  0  0  0  0  0  0  0
    1.3676    4.0004    0.0000 C   0  0  0  0  0  0  0  0  0  0  0  0
    2.6666    3.2504    0.0000 C   0  0  0  0  0  0  0  0  0  0  0  0
    3.9657    4.0004    0.0000 C   0  0  0  0  0  0  0  0  0  0  0  0
    5.2646    3.2504    0.0000 C   0  0  0  0  0  0  0  0  0  0  0  0
    6.5636    4.0004    0.0000 C   0  0  0  0  0  0  0  0  0  0  0  0
    7.8627    3.2504    0.0000 S   0  0  0  0  0  0  0  0  0  0  0  0
    9.1615    4.0004    0.0000 C   0  0  0  0  0  0  0  0  0  0  0  0
    9.3185    5.4922    0.0000 N   0  0  0  0  0  0  0  0  0  0  0  0
   10.7855    5.8040    0.0000 C   0  0  0  0  0  0  0  0  0  0  0  0
   11.5355    4.5049    0.0000 C   0  0  0  0  0  0  0  0  0  0  0  0
   13.0273    4.3482    0.0000 N   0  3  0  0  0  0  0  0  0  0  0  0
   13.9089    5.5616    0.0000 O   0  0  0  0  0  0  0  0  0  0  0  0
   13.6374    2.9779    0.0000 O   0  5  0  0  0  0  0  0  0  0  0  0
   10.5319    3.3902    0.0000 N   0  0  0  0  0  0  0  0  0  0  0  0
   10.8437    1.9231    0.0000 C   0  0  0  0  0  0  0  0  0  0  0  0
   -2.5294    1.7504    0.0000 C   0  0  0  0  0  0  0  0  0  0  0  0
   -3.8285    1.0004    0.0000 C   0  0  0  0  0  0  0  0  0  0  0  0
   -1.2304    1.0004    0.0000 N   0  3  0  0  0  0  0  0  0  0  0  0
   -1.2304   -0.4995    0.0000 O   0  0  0  0  0  0  0  0  0  0  0  0
    0.0685    1.7504    0.0000 O   0  5  0  0  0  0  0  0  0  0  0  0
  1  2  1  0  0  0  0
  2  3  1  0  0  0  0
  3  4  1  0  0  0  0
  4  5  2  0  0  0  0
  4  6  1  0  0  0  0
  6  7  2  0  0  0  0
  7  8  1  0  0  0  0
  8  9  2  0  0  0  0
  9 10  1  0  0  0  0
 10 11  1  0  0  0  0
 11 12  1  0  0  0  0
 12 13  1  0  0  0  0
 13 14  1  0  0  0  0
 14 15  1  0  0  0  0
 15 16  1  0  0  0  0
 16 17  1  0  0  0  0
 17 18  1  0  0  0  0
 18 19  2  0  0  0  0
 19 20  1  0  0  0  0
 20 21  2  0  0  0  0
 21 22  1  0  0  0  0
 22 23  2  0  0  0  0
 22 24  1  0  0  0  0
 21 25  1  0  0  0  0
 18 25  1  0  0  0  0
 25 26  1  0  0  0  0
  9 27  1  0  0  0  0
 27 28  2  0  0  0  0
  6 28  1  0  0  0  0
 27 29  1  0  0  0  0
 29 30  2  0  0  0  0
 29 31  1  0  0  0  0
M  CHG  4  22   1  24  -1  29   1  31  -1
M  END
> <Molecule Name>
CHEMBL3274645

> <IUPAC>
ethyl 4-({6-[(1-methyl-5-nitro-1H-imidazol-2-yl)sulfanyl]hexyl}oxy)-3-nitrobenzoate

> <ChEMBL_Data_Neisseria_g: NUM_RO5_VIOLATIONS>
0

> <ChEMBL_Data_Neisseria_g: Qualifier_for_MIC_Ng>
>

> <ChEMBL_Data_Neisseria_g: ASSAY_CHEMBLID>
CHEMBL3283002

> <ChEMBL_Data_Neisseria_g: DESCRIPTION_of_Assay_Ng>
Antibacterial activity against Neisseria gonorrhoeae ATCC 19424 after 48 hrs by ten-fold serial dilution method

> <ChEMBL_Data_Neisseria_g: PUBMED_ID>
412966

> <ChEMBL_Data_Neisseria_g: YEAR>
1977

> <ChEMBL_Data_Neisseria_g: JOURNAL>
J. Med. Chem.

> <ChEMBL_Data_Neisseria_g: VOLUME>
20

> <ChEMBL_Data_Neisseria_g: FIRST_PAGE>
1697

> <ChEMBL_Data_Neisseria_g: MIC_vs_Neisseria_microg_per_mL>
100

> <ALogP>
4.311

> <Active>
0

> <Molecular_Weight>
452.481

> <ChEMBL_Data_Neisseria_g: STRAIN_of_Ng>
ATCC 19424

$$$$

Generated by Molecular Materials Informatics

 26 27  0  0  0  0  0  0  0  0999 V2000
   -7.2714   -3.4794    0.0000 C   0  0  0  0  0  0  0  0  0  0  0  0
   -6.9596   -4.9465    0.0000 N   0  0  0  0  0  0  0  0  0  0  0  0
   -5.5893   -5.5567    0.0000 C   0  0  0  0  0  0  0  0  0  0  0  0
   -4.2902   -4.8067    0.0000 S   0  0  0  0  0  0  0  0  0  0  0  0
   -2.9912   -5.5567    0.0000 C   0  0  0  0  0  0  0  0  0  0  0  0
   -1.6923   -4.8067    0.0000 C   0  0  0  0  0  0  0  0  0  0  0  0
   -0.3932   -5.5567    0.0000 C   0  0  0  0  0  0  0  0  0  0  0  0
    0.9059   -4.8067    0.0000 C   0  0  0  0  0  0  0  0  0  0  0  0
    2.2047   -5.5567    0.0000 C   0  0  0  0  0  0  0  0  0  0  0  0
    3.5038   -4.8067    0.0000 C   0  0  0  0  0  0  0  0  0  0  0  0
    4.8029   -5.5567    0.0000 O   0  0  0  0  0  0  0  0  0  0  0  0
    6.1019   -4.8067    0.0000 C   0  0  0  0  0  0  0  0  0  0  0  0
    6.1019   -3.3067    0.0000 C   0  0  0  0  0  0  0  0  0  0  0  0
    7.4008   -2.5567    0.0000 C   0  0  0  0  0  0  0  0  0  0  0  0
    8.6999   -3.3067    0.0000 C   0  0  0  0  0  0  0  0  0  0  0  0
    8.6999   -4.8067    0.0000 C   0  0  0  0  0  0  0  0  0  0  0  0
    7.4008   -5.5567    0.0000 C   0  0  0  0  0  0  0  0  0  0  0  0
    9.9990   -2.5567    0.0000 C   0  0  0  0  0  0  0  0  0  0  0  0
   11.2978   -3.3067    0.0000 O   0  0  0  0  0  0  0  0  0  0  0  0
    9.9990   -1.0567    0.0000 O   0  0  0  0  0  0  0  0  0  0  0  0
   -5.7460   -7.0484    0.0000 N   0  0  0  0  0  0  0  0  0  0  0  0
   -7.2133   -7.3603    0.0000 C   0  0  0  0  0  0  0  0  0  0  0  0
   -7.9632   -6.0612    0.0000 C   0  0  0  0  0  0  0  0  0  0  0  0
   -9.4550   -5.9045    0.0000 N   0  3  0  0  0  0  0  0  0  0  0  0
  -10.3366   -7.1179    0.0000 O   0  0  0  0  0  0  0  0  0  0  0  0
  -10.0650   -4.5341    0.0000 O   0  5  0  0  0  0  0  0  0  0  0  0
  1  2  1  0  0  0  0
  2  3  1  0  0  0  0
  3  4  1  0  0  0  0
  4  5  1  0  0  0  0
  5  6  1  0  0  0  0
  6  7  1  0  0  0  0
  7  8  1  0  0  0  0
  8  9  1  0  0  0  0
  9 10  1  0  0  0  0
 10 11  1  0  0  0  0
 11 12  1  0  0  0  0
 12 13  2  0  0  0  0
 13 14  1  0  0  0  0
 14 15  2  0  0  0  0
 15 16  1  0  0  0  0
 16 17  2  0  0  0  0
 12 17  1  0  0  0  0
 15 18  1  0  0  0  0
 18 19  2  0  0  0  0
 18 20  1  0  0  0  0
  3 21  2  0  0  0  0
 21 22  1  0  0  0  0
 22 23  2  0  0  0  0
  2 23  1  0  0  0  0
 23 24  1  0  0  0  0
 24 25  2  0  0  0  0
 24 26  1  0  0  0  0
M  CHG  2  24   1  26  -1
M  END
> <Molecule Name>
CHEMBL3274644

> <IUPAC>
4-({6-[(1-methyl-5-nitro-1H-imidazol-2-yl)sulfanyl]hexyl}oxy)benzoic acid

> <ChEMBL_Data_Neisseria_g: NUM_RO5_VIOLATIONS>
0

> <ChEMBL_Data_Neisseria_g: Qualifier_for_MIC_Ng>
=

> <ChEMBL_Data_Neisseria_g: ASSAY_CHEMBLID>
CHEMBL3283002

> <ChEMBL_Data_Neisseria_g: DESCRIPTION_of_Assay_Ng>
Antibacterial activity against Neisseria gonorrhoeae ATCC 19424 after 48 hrs by ten-fold serial dilution method

> <ChEMBL_Data_Neisseria_g: PUBMED_ID>
412966

> <ChEMBL_Data_Neisseria_g: YEAR>
1977

> <ChEMBL_Data_Neisseria_g: JOURNAL>
J. Med. Chem.

> <ChEMBL_Data_Neisseria_g: VOLUME>
20

> <ChEMBL_Data_Neisseria_g: FIRST_PAGE>
1697

> <ChEMBL_Data_Neisseria_g: MIC_vs_Neisseria_microg_per_mL>
0.1

> <ALogP>
3.842

> <Active>
1

> <Molecular_Weight>
379.431

> <ChEMBL_Data_Neisseria_g: STRAIN_of_Ng>
ATCC 19424

$$$$

Generated by Molecular Materials Informatics

 24 25  0  0  0  0  0  0  0  0999 V2000
   -5.9724   -2.2419    0.0000 C   0  0  0  0  0  0  0  0  0  0  0  0
   -5.6605   -3.7090    0.0000 N   0  0  0  0  0  0  0  0  0  0  0  0
   -4.2902   -4.3191    0.0000 C   0  0  0  0  0  0  0  0  0  0  0  0
   -2.9912   -3.5692    0.0000 S   0  0  0  0  0  0  0  0  0  0  0  0
   -1.6923   -4.3191    0.0000 C   0  0  0  0  0  0  0  0  0  0  0  0
   -0.3932   -3.5692    0.0000 C   0  0  0  0  0  0  0  0  0  0  0  0
    0.9058   -4.3191    0.0000 C   0  0  0  0  0  0  0  0  0  0  0  0
    2.2047   -3.5692    0.0000 C   0  0  0  0  0  0  0  0  0  0  0  0
    3.5038   -4.3191    0.0000 O   0  0  0  0  0  0  0  0  0  0  0  0
    4.8028   -3.5692    0.0000 C   0  0  0  0  0  0  0  0  0  0  0  0
    4.8028   -2.0692    0.0000 C   0  0  0  0  0  0  0  0  0  0  0  0
    6.1019   -1.3192    0.0000 C   0  0  0  0  0  0  0  0  0  0  0  0
    7.4007   -2.0692    0.0000 C   0  0  0  0  0  0  0  0  0  0  0  0
    7.4007   -3.5692    0.0000 C   0  0  0  0  0  0  0  0  0  0  0  0
    6.1019   -4.3191    0.0000 C   0  0  0  0  0  0  0  0  0  0  0  0
    8.6998   -1.3192    0.0000 C   0  0  0  0  0  0  0  0  0  0  0  0
    9.9988   -2.0692    0.0000 O   0  0  0  0  0  0  0  0  0  0  0  0
    8.6998    0.1807    0.0000 O   0  0  0  0  0  0  0  0  0  0  0  0
   -4.4469   -5.8109    0.0000 N   0  0  0  0  0  0  0  0  0  0  0  0
   -5.9142   -6.1227    0.0000 C   0  0  0  0  0  0  0  0  0  0  0  0
   -6.6642   -4.8237    0.0000 C   0  0  0  0  0  0  0  0  0  0  0  0
   -8.1559   -4.6670    0.0000 N   0  3  0  0  0  0  0  0  0  0  0  0
   -9.0375   -5.8804    0.0000 O   0  0  0  0  0  0  0  0  0  0  0  0
   -8.7661   -3.2966    0.0000 O   0  5  0  0  0  0  0  0  0  0  0  0
  1  2  1  0  0  0  0
  2  3  1  0  0  0  0
  3  4  1  0  0  0  0
  4  5  1  0  0  0  0
  5  6  1  0  0  0  0
  6  7  1  0  0  0  0
  7  8  1  0  0  0  0
  8  9  1  0  0  0  0
  9 10  1  0  0  0  0
 10 11  2  0  0  0  0
 11 12  1  0  0  0  0
 12 13  2  0  0  0  0
 13 14  1  0  0  0  0
 14 15  2  0  0  0  0
 10 15  1  0  0  0  0
 13 16  1  0  0  0  0
 16 17  2  0  0  0  0
 16 18  1  0  0  0  0
  3 19  2  0  0  0  0
 19 20  1  0  0  0  0
 20 21  2  0  0  0  0
  2 21  1  0  0  0  0
 21 22  1  0  0  0  0
 22 23  2  0  0  0  0
 22 24  1  0  0  0  0
M  CHG  2  22   1  24  -1
M  END
> <Molecule Name>
CHEMBL3274643

> <IUPAC>
4-{4-[(1-methyl-5-nitro-1H-imidazol-2-yl)sulfanyl]butoxy}benzoic acid

> <ChEMBL_Data_Neisseria_g: NUM_RO5_VIOLATIONS>
0

> <ChEMBL_Data_Neisseria_g: Qualifier_for_MIC_Ng>
=

> <ChEMBL_Data_Neisseria_g: ASSAY_CHEMBLID>
CHEMBL3283002

> <ChEMBL_Data_Neisseria_g: DESCRIPTION_of_Assay_Ng>
Antibacterial activity against Neisseria gonorrhoeae ATCC 19424 after 48 hrs by ten-fold serial dilution method

> <ChEMBL_Data_Neisseria_g: PUBMED_ID>
412966

> <ChEMBL_Data_Neisseria_g: YEAR>
1977

> <ChEMBL_Data_Neisseria_g: JOURNAL>
J. Med. Chem.

> <ChEMBL_Data_Neisseria_g: VOLUME>
20

> <ChEMBL_Data_Neisseria_g: FIRST_PAGE>
1697

> <ChEMBL_Data_Neisseria_g: MIC_vs_Neisseria_microg_per_mL>
100

> <ALogP>
2.929

> <Active>
0

> <Molecular_Weight>
351.378

> <ChEMBL_Data_Neisseria_g: STRAIN_of_Ng>
ATCC 19424

$$$$

Generated by Molecular Materials Informatics

 23 24  0  0  0  0  0  0  0  0999 V2000
  -10.0494    3.8614    0.0000 C   0  0  0  0  0  0  0  0  0  0  0  0
   -8.7503    4.6114    0.0000 C   0  0  0  0  0  0  0  0  0  0  0  0
   -7.4513    3.8614    0.0000 O   0  0  0  0  0  0  0  0  0  0  0  0
   -6.1524    4.6114    0.0000 C   0  0  0  0  0  0  0  0  0  0  0  0
   -6.1524    6.1114    0.0000 O   0  0  0  0  0  0  0  0  0  0  0  0
   -4.8534    3.8614    0.0000 C   0  0  0  0  0  0  0  0  0  0  0  0
   -3.5543    4.6114    0.0000 C   0  0  0  0  0  0  0  0  0  0  0  0
   -2.2552    3.8614    0.0000 C   0  0  0  0  0  0  0  0  0  0  0  0
   -2.2552    2.3615    0.0000 C   0  0  0  0  0  0  0  0  0  0  0  0
   -0.9564    1.6115    0.0000 O   0  0  0  0  0  0  0  0  0  0  0  0
    0.3427    2.3615    0.0000 C   0  0  0  0  0  0  0  0  0  0  0  0
    1.6417    1.6115    0.0000 C   0  0  0  0  0  0  0  0  0  0  0  0
    2.9406    2.3615    0.0000 C   0  0  0  0  0  0  0  0  0  0  0  0
    4.2396    1.6115    0.0000 C   0  0  0  0  0  0  0  0  0  0  0  0
    5.5387    2.3615    0.0000 S   0  0  0  0  0  0  0  0  0  0  0  0
    6.8377    1.6115    0.0000 C   0  0  0  0  0  0  0  0  0  0  0  0
    8.2079    2.2217    0.0000 N   0  0  0  0  0  0  0  0  0  0  0  0
    9.2117    1.1070    0.0000 C   0  0  0  0  0  0  0  0  0  0  0  0
    8.4617   -0.1921    0.0000 C   0  0  0  0  0  0  0  0  0  0  0  0
    6.9945    0.1197    0.0000 N   0  0  0  0  0  0  0  0  0  0  0  0
    5.8798   -0.8839    0.0000 C   0  0  0  0  0  0  0  0  0  0  0  0
   -3.5543    1.6115    0.0000 C   0  0  0  0  0  0  0  0  0  0  0  0
   -4.8534    2.3615    0.0000 C   0  0  0  0  0  0  0  0  0  0  0  0
  1  2  1  0  0  0  0
  2  3  1  0  0  0  0
  3  4  1  0  0  0  0
  4  5  2  0  0  0  0
  4  6  1  0  0  0  0
  6  7  2  0  0  0  0
  7  8  1  0  0  0  0
  8  9  2  0  0  0  0
  9 10  1  0  0  0  0
 10 11  1  0  0  0  0
 11 12  1  0  0  0  0
 12 13  1  0  0  0  0
 13 14  1  0  0  0  0
 14 15  1  0  0  0  0
 15 16  1  0  0  0  0
 16 17  2  0  0  0  0
 17 18  1  0  0  0  0
 18 19  2  0  0  0  0
 19 20  1  0  0  0  0
 16 20  1  0  0  0  0
 20 21  1  0  0  0  0
  9 22  1  0  0  0  0
 22 23  2  0  0  0  0
  6 23  1  0  0  0  0
M  END
> <Molecule Name>
CHEMBL3274642

> <IUPAC>
ethyl 4-{4-[(1-methyl-1H-imidazol-2-yl)sulfanyl]butoxy}benzoate

> <ChEMBL_Data_Neisseria_g: NUM_RO5_VIOLATIONS>
0

> <ChEMBL_Data_Neisseria_g: Qualifier_for_MIC_Ng>
>

> <ChEMBL_Data_Neisseria_g: ASSAY_CHEMBLID>
CHEMBL3283002

> <ChEMBL_Data_Neisseria_g: DESCRIPTION_of_Assay_Ng>
Antibacterial activity against Neisseria gonorrhoeae ATCC 19424 after 48 hrs by ten-fold serial dilution method

> <ChEMBL_Data_Neisseria_g: PUBMED_ID>
412966

> <ChEMBL_Data_Neisseria_g: YEAR>
1977

> <ChEMBL_Data_Neisseria_g: JOURNAL>
J. Med. Chem.

> <ChEMBL_Data_Neisseria_g: VOLUME>
20

> <ChEMBL_Data_Neisseria_g: FIRST_PAGE>
1697

> <ChEMBL_Data_Neisseria_g: MIC_vs_Neisseria_microg_per_mL>
100

> <ALogP>
3.485

> <Active>
0

> <Molecular_Weight>
334.433

> <ChEMBL_Data_Neisseria_g: STRAIN_of_Ng>
ATCC 19424

$$$$

Generated by Molecular Materials Informatics

 18 19  0  0  0  0  0  0  0  0999 V2000
   -0.4961   -1.4984    0.0000 C   0  0  0  0  0  0  0  0  0  0  0  0
   -0.1841   -0.0312    0.0000 N   0  0  0  0  0  0  0  0  0  0  0  0
   -1.1879    1.0835    0.0000 C   0  0  0  0  0  0  0  0  0  0  0  0
   -0.4379    2.3825    0.0000 C   0  0  0  0  0  0  0  0  0  0  0  0
    1.0293    2.0706    0.0000 N   0  0  0  0  0  0  0  0  0  0  0  0
    1.1860    0.5790    0.0000 C   0  0  0  0  0  0  0  0  0  0  0  0
    2.4851   -0.1710    0.0000 S   0  0  0  0  0  0  0  0  0  0  0  0
    3.7841    0.5790    0.0000 C   0  0  0  0  0  0  0  0  0  0  0  0
    5.0832   -0.1710    0.0000 C   0  0  0  0  0  0  0  0  0  0  0  0
    6.3820    0.5790    0.0000 C   0  0  0  0  0  0  0  0  0  0  0  0
    7.6811   -0.1710    0.0000 C   0  0  0  0  0  0  0  0  0  0  0  0
    8.9801    0.5790    0.0000 O   0  0  0  0  0  0  0  0  0  0  0  0
   10.2790   -0.1710    0.0000 C   0  0  0  0  0  0  0  0  0  0  0  0
   11.5781    0.5790    0.0000 C   0  0  0  0  0  0  0  0  0  0  0  0
   12.8771   -0.1710    0.0000 C   0  0  0  0  0  0  0  0  0  0  0  0
   12.8771   -1.6710    0.0000 C   0  0  0  0  0  0  0  0  0  0  0  0
   11.5781   -2.4209    0.0000 C   0  0  0  0  0  0  0  0  0  0  0  0
   10.2790   -1.6710    0.0000 C   0  0  0  0  0  0  0  0  0  0  0  0
  1  2  1  0  0  0  0
  2  3  1  0  0  0  0
  3  4  2  0  0  0  0
  4  5  1  0  0  0  0
  5  6  2  0  0  0  0
  2  6  1  0  0  0  0
  6  7  1  0  0  0  0
  7  8  1  0  0  0  0
  8  9  1  0  0  0  0
  9 10  1  0  0  0  0
 10 11  1  0  0  0  0
 11 12  1  0  0  0  0
 12 13  1  0  0  0  0
 13 14  2  0  0  0  0
 14 15  1  0  0  0  0
 15 16  2  0  0  0  0
 16 17  1  0  0  0  0
 17 18  2  0  0  0  0
 13 18  1  0  0  0  0
M  END
> <Molecule Name>
CHEMBL3274640

> <IUPAC>
1-methyl-2-[(4-phenoxybutyl)sulfanyl]-1H-imidazole hydrobromide

> <ChEMBL_Data_Neisseria_g: NUM_RO5_VIOLATIONS>
0

> <ChEMBL_Data_Neisseria_g: Qualifier_for_MIC_Ng>
=

> <ChEMBL_Data_Neisseria_g: ASSAY_CHEMBLID>
CHEMBL3283002

> <ChEMBL_Data_Neisseria_g: DESCRIPTION_of_Assay_Ng>
Antibacterial activity against Neisseria gonorrhoeae ATCC 19424 after 48 hrs by ten-fold serial dilution method

> <ChEMBL_Data_Neisseria_g: PUBMED_ID>
412966

> <ChEMBL_Data_Neisseria_g: YEAR>
1977

> <ChEMBL_Data_Neisseria_g: JOURNAL>
J. Med. Chem.

> <ChEMBL_Data_Neisseria_g: VOLUME>
20

> <ChEMBL_Data_Neisseria_g: FIRST_PAGE>
1697

> <ChEMBL_Data_Neisseria_g: MIC_vs_Neisseria_microg_per_mL>
100

> <ALogP>
3.772

> <Active>
0

> <Molecular_Weight>
262.371

> <ChEMBL_Data_Neisseria_g: STRAIN_of_Ng>
ATCC 19424

$$$$

Generated by Molecular Materials Informatics

 23 24  0  0  0  0  0  0  0  0999 V2000
   -2.1078   -1.6714    0.0000 C   0  0  0  0  0  0  0  0  0  0  0  0
   -1.7958   -3.1385    0.0000 N   0  0  0  0  0  0  0  0  0  0  0  0
   -0.4257   -3.7487    0.0000 C   0  0  0  0  0  0  0  0  0  0  0  0
    0.8734   -2.9987    0.0000 S   0  0  0  0  0  0  0  0  0  0  0  0
    2.1724   -3.7487    0.0000 C   0  0  0  0  0  0  0  0  0  0  0  0
    3.4715   -2.9987    0.0000 C   0  0  0  0  0  0  0  0  0  0  0  0
    4.7704   -3.7487    0.0000 C   0  0  0  0  0  0  0  0  0  0  0  0
    6.0694   -2.9987    0.0000 O   0  0  0  0  0  0  0  0  0  0  0  0
    7.3685   -3.7487    0.0000 C   0  0  0  0  0  0  0  0  0  0  0  0
    8.6673   -2.9987    0.0000 C   0  0  0  0  0  0  0  0  0  0  0  0
    9.9664   -3.7487    0.0000 C   0  0  0  0  0  0  0  0  0  0  0  0
    9.9664   -5.2486    0.0000 C   0  0  0  0  0  0  0  0  0  0  0  0
    8.6673   -5.9986    0.0000 C   0  0  0  0  0  0  0  0  0  0  0  0
    7.3685   -5.2486    0.0000 C   0  0  0  0  0  0  0  0  0  0  0  0
   11.2654   -5.9986    0.0000 C   0  0  0  0  0  0  0  0  0  0  0  0
   11.2654   -7.4986    0.0000 O   0  0  0  0  0  0  0  0  0  0  0  0
   12.5645   -5.2486    0.0000 O   0  0  0  0  0  0  0  0  0  0  0  0
   -0.5824   -5.2404    0.0000 N   0  0  0  0  0  0  0  0  0  0  0  0
   -2.0496   -5.5522    0.0000 C   0  0  0  0  0  0  0  0  0  0  0  0
   -2.7996   -4.2532    0.0000 C   0  0  0  0  0  0  0  0  0  0  0  0
   -4.2912   -4.0965    0.0000 N   0  3  0  0  0  0  0  0  0  0  0  0
   -5.1730   -5.3099    0.0000 O   0  0  0  0  0  0  0  0  0  0  0  0
   -4.9014   -2.7261    0.0000 O   0  5  0  0  0  0  0  0  0  0  0  0
  1  2  1  0  0  0  0
  2  3  1  0  0  0  0
  3  4  1  0  0  0  0
  4  5  1  0  0  0  0
  5  6  1  0  0  0  0
  6  7  1  0  0  0  0
  7  8  1  0  0  0  0
  8  9  1  0  0  0  0
  9 10  2  0  0  0  0
 10 11  1  0  0  0  0
 11 12  2  0  0  0  0
 12 13  1  0  0  0  0
 13 14  2  0  0  0  0
  9 14  1  0  0  0  0
 12 15  1  0  0  0  0
 15 16  2  0  0  0  0
 15 17  1  0  0  0  0
  3 18  2  0  0  0  0
 18 19  1  0  0  0  0
 19 20  2  0  0  0  0
  2 20  1  0  0  0  0
 20 21  1  0  0  0  0
 21 22  2  0  0  0  0
 21 23  1  0  0  0  0
M  CHG  2  21   1  23  -1
M  END
> <Molecule Name>
CHEMBL3274639

> <IUPAC>
4-{3-[(1-methyl-5-nitro-1H-imidazol-2-yl)sulfanyl]propoxy}benzoic acid

> <ChEMBL_Data_Neisseria_g: NUM_RO5_VIOLATIONS>
0

> <ChEMBL_Data_Neisseria_g: Qualifier_for_MIC_Ng>
=

> <ChEMBL_Data_Neisseria_g: ASSAY_CHEMBLID>
CHEMBL3283002

> <ChEMBL_Data_Neisseria_g: DESCRIPTION_of_Assay_Ng>
Antibacterial activity against Neisseria gonorrhoeae ATCC 19424 after 48 hrs by ten-fold serial dilution method

> <ChEMBL_Data_Neisseria_g: PUBMED_ID>
412966

> <ChEMBL_Data_Neisseria_g: YEAR>
1977

> <ChEMBL_Data_Neisseria_g: JOURNAL>
J. Med. Chem.

> <ChEMBL_Data_Neisseria_g: VOLUME>
20

> <ChEMBL_Data_Neisseria_g: FIRST_PAGE>
1697

> <ChEMBL_Data_Neisseria_g: MIC_vs_Neisseria_microg_per_mL>
1

> <ALogP>
2.349

> <Active>
1

> <Molecular_Weight>
337.351

> <ChEMBL_Data_Neisseria_g: STRAIN_of_Ng>
ATCC 19424

$$$$

Generated by Molecular Materials Informatics

 22 23  0  0  0  0  0  0  0  0999 V2000
   -4.6732   -1.0044    0.0000 C   0  0  0  0  0  0  0  0  0  0  0  0
   -4.3614   -2.4715    0.0000 N   0  0  0  0  0  0  0  0  0  0  0  0
   -2.9911   -3.0816    0.0000 C   0  0  0  0  0  0  0  0  0  0  0  0
   -1.6922   -2.3317    0.0000 S   0  0  0  0  0  0  0  0  0  0  0  0
   -0.3932   -3.0816    0.0000 C   0  0  0  0  0  0  0  0  0  0  0  0
    0.9059   -2.3317    0.0000 C   0  0  0  0  0  0  0  0  0  0  0  0
    2.2047   -3.0816    0.0000 O   0  0  0  0  0  0  0  0  0  0  0  0
    3.5038   -2.3317    0.0000 C   0  0  0  0  0  0  0  0  0  0  0  0
    3.5038   -0.8317    0.0000 C   0  0  0  0  0  0  0  0  0  0  0  0
    4.8028   -0.0817    0.0000 C   0  0  0  0  0  0  0  0  0  0  0  0
    6.1019   -0.8317    0.0000 C   0  0  0  0  0  0  0  0  0  0  0  0
    6.1019   -2.3317    0.0000 C   0  0  0  0  0  0  0  0  0  0  0  0
    4.8028   -3.0816    0.0000 C   0  0  0  0  0  0  0  0  0  0  0  0
    7.4008   -0.0817    0.0000 C   0  0  0  0  0  0  0  0  0  0  0  0
    7.4008    1.4182    0.0000 O   0  0  0  0  0  0  0  0  0  0  0  0
    8.6998   -0.8317    0.0000 O   0  5  0  0  0  0  0  0  0  0  0  0
   -3.1480   -4.5734    0.0000 N   0  0  0  0  0  0  0  0  0  0  0  0
   -4.6151   -4.8852    0.0000 C   0  0  0  0  0  0  0  0  0  0  0  0
   -5.3650   -3.5862    0.0000 C   0  0  0  0  0  0  0  0  0  0  0  0
   -6.8568   -3.4294    0.0000 N   0  3  0  0  0  0  0  0  0  0  0  0
   -7.7386   -4.6429    0.0000 O   0  0  0  0  0  0  0  0  0  0  0  0
   -7.4670   -2.0591    0.0000 O   0  5  0  0  0  0  0  0  0  0  0  0
  1  2  1  0  0  0  0
  2  3  1  0  0  0  0
  3  4  1  0  0  0  0
  4  5  1  0  0  0  0
  5  6  1  0  0  0  0
  6  7  1  0  0  0  0
  7  8  1  0  0  0  0
  8  9  2  0  0  0  0
  9 10  1  0  0  0  0
 10 11  2  0  0  0  0
 11 12  1  0  0  0  0
 12 13  2  0  0  0  0
  8 13  1  0  0  0  0
 11 14  1  0  0  0  0
 14 15  2  0  0  0  0
 14 16  1  0  0  0  0
  3 17  2  0  0  0  0
 17 18  1  0  0  0  0
 18 19  2  0  0  0  0
  2 19  1  0  0  0  0
 19 20  1  0  0  0  0
 20 21  2  0  0  0  0
 20 22  1  0  0  0  0
M  CHG  3  16  -1  20   1  22  -1
M  END
> <Molecule Name>
CHEMBL3274638

> <IUPAC>
sodium 4-{2-[(1-methyl-5-nitro-1H-imidazol-2-yl)sulfanyl]ethoxy}benzoic acid

> <ChEMBL_Data_Neisseria_g: NUM_RO5_VIOLATIONS>
0

> <ChEMBL_Data_Neisseria_g: Qualifier_for_MIC_Ng>
=

> <ChEMBL_Data_Neisseria_g: ASSAY_CHEMBLID>
CHEMBL3283002

> <ChEMBL_Data_Neisseria_g: DESCRIPTION_of_Assay_Ng>
Antibacterial activity against Neisseria gonorrhoeae ATCC 19424 after 48 hrs by ten-fold serial dilution method

> <ChEMBL_Data_Neisseria_g: PUBMED_ID>
412966

> <ChEMBL_Data_Neisseria_g: YEAR>
1977

> <ChEMBL_Data_Neisseria_g: JOURNAL>
J. Med. Chem.

> <ChEMBL_Data_Neisseria_g: VOLUME>
20

> <ChEMBL_Data_Neisseria_g: FIRST_PAGE>
1697

> <ChEMBL_Data_Neisseria_g: MIC_vs_Neisseria_microg_per_mL>
1

> <ALogP>
0.813

> <Active>
1

> <Molecular_Weight>
322.316

> <ChEMBL_Data_Neisseria_g: STRAIN_of_Ng>
ATCC 19424

$$$$

Generated by Molecular Materials Informatics

 23 24  0  0  0  0  0  0  0  0999 V2000
   -0.8342    0.0457    0.0000 C   0  0  0  0  0  0  0  0  0  0  0  0
   -1.9489   -0.9579    0.0000 N   0  0  0  0  0  0  0  0  0  0  0  0
   -1.7922   -2.4497    0.0000 C   0  0  0  0  0  0  0  0  0  0  0  0
   -3.1625   -3.0598    0.0000 N   0  0  0  0  0  0  0  0  0  0  0  0
   -4.1661   -1.9451    0.0000 C   0  0  0  0  0  0  0  0  0  0  0  0
   -3.4161   -0.6461    0.0000 C   0  0  0  0  0  0  0  0  0  0  0  0
   -4.0263    0.7243    0.0000 N   0  3  0  0  0  0  0  0  0  0  0  0
   -5.5179    0.8810    0.0000 O   0  0  0  0  0  0  0  0  0  0  0  0
   -3.1445    1.9377    0.0000 O   0  5  0  0  0  0  0  0  0  0  0  0
   -0.4931   -3.1997    0.0000 S   0  3  0  0  0  0  0  0  0  0  0  0
   -0.4931   -4.6996    0.0000 O   0  5  0  0  0  0  0  0  0  0  0  0
    0.8058   -2.4497    0.0000 C   0  0  0  0  0  0  0  0  0  0  0  0
    2.1049   -3.1997    0.0000 C   0  0  0  0  0  0  0  0  0  0  0  0
    3.4039   -2.4497    0.0000 O   0  0  0  0  0  0  0  0  0  0  0  0
    4.7030   -3.1997    0.0000 C   0  0  0  0  0  0  0  0  0  0  0  0
    6.0019   -2.4497    0.0000 C   0  0  0  0  0  0  0  0  0  0  0  0
    7.3010   -3.1997    0.0000 C   0  0  0  0  0  0  0  0  0  0  0  0
    7.3010   -4.6996    0.0000 C   0  0  0  0  0  0  0  0  0  0  0  0
    6.0019   -5.4496    0.0000 C   0  0  0  0  0  0  0  0  0  0  0  0
    4.7030   -4.6996    0.0000 C   0  0  0  0  0  0  0  0  0  0  0  0
    8.6000   -5.4496    0.0000 C   0  0  0  0  0  0  0  0  0  0  0  0
    9.8989   -4.6996    0.0000 O   0  0  0  0  0  0  0  0  0  0  0  0
    8.6000   -6.9496    0.0000 O   0  0  0  0  0  0  0  0  0  0  0  0
  1  2  1  0  0  0  0
  2  3  1  0  0  0  0
  3  4  2  0  0  0  0
  4  5  1  0  0  0  0
  5  6  2  0  0  0  0
  2  6  1  0  0  0  0
  6  7  1  0  0  0  0
  7  8  2  0  0  0  0
  7  9  1  0  0  0  0
  3 10  1  0  0  0  0
 10 11  1  0  0  0  0
 10 12  1  0  0  0  0
 12 13  1  0  0  0  0
 13 14  1  0  0  0  0
 14 15  1  0  0  0  0
 15 16  2  0  0  0  0
 16 17  1  0  0  0  0
 17 18  2  0  0  0  0
 18 19  1  0  0  0  0
 19 20  2  0  0  0  0
 15 20  1  0  0  0  0
 18 21  1  0  0  0  0
 21 22  2  0  0  0  0
 21 23  1  0  0  0  0
M  CHG  4   7   1   9  -1  10   1  11  -1
M  END
> <Molecule Name>
CHEMBL3274637

> <IUPAC>
4-{2-[(1-methyl-5-nitro-1H-imidazol-2-yl)sulfinyl]ethoxy}benzoic acid

> <ChEMBL_Data_Neisseria_g: NUM_RO5_VIOLATIONS>
0

> <ChEMBL_Data_Neisseria_g: Qualifier_for_MIC_Ng>
=

> <ChEMBL_Data_Neisseria_g: ASSAY_CHEMBLID>
CHEMBL3283002

> <ChEMBL_Data_Neisseria_g: DESCRIPTION_of_Assay_Ng>
Antibacterial activity against Neisseria gonorrhoeae ATCC 19424 after 48 hrs by ten-fold serial dilution method

> <ChEMBL_Data_Neisseria_g: PUBMED_ID>
412966

> <ChEMBL_Data_Neisseria_g: YEAR>
1977

> <ChEMBL_Data_Neisseria_g: JOURNAL>
J. Med. Chem.

> <ChEMBL_Data_Neisseria_g: VOLUME>
20

> <ChEMBL_Data_Neisseria_g: FIRST_PAGE>
1697

> <ChEMBL_Data_Neisseria_g: MIC_vs_Neisseria_microg_per_mL>
100

> <ALogP>
1.493

> <Active>
0

> <Molecular_Weight>
339.324

> <ChEMBL_Data_Neisseria_g: STRAIN_of_Ng>
ATCC 19424

$$$$

Generated by Molecular Materials Informatics

 22 23  0  0  0  0  0  0  0  0999 V2000
   -4.6732   -1.0044    0.0000 C   0  0  0  0  0  0  0  0  0  0  0  0
   -4.3614   -2.4715    0.0000 N   0  0  0  0  0  0  0  0  0  0  0  0
   -2.9911   -3.0816    0.0000 C   0  0  0  0  0  0  0  0  0  0  0  0
   -1.6922   -2.3317    0.0000 S   0  0  0  0  0  0  0  0  0  0  0  0
   -0.3932   -3.0816    0.0000 C   0  0  0  0  0  0  0  0  0  0  0  0
    0.9059   -2.3317    0.0000 C   0  0  0  0  0  0  0  0  0  0  0  0
    2.2047   -3.0816    0.0000 O   0  0  0  0  0  0  0  0  0  0  0  0
    3.5038   -2.3317    0.0000 C   0  0  0  0  0  0  0  0  0  0  0  0
    3.5038   -0.8317    0.0000 C   0  0  0  0  0  0  0  0  0  0  0  0
    4.8028   -0.0817    0.0000 C   0  0  0  0  0  0  0  0  0  0  0  0
    6.1019   -0.8317    0.0000 C   0  0  0  0  0  0  0  0  0  0  0  0
    6.1019   -2.3317    0.0000 C   0  0  0  0  0  0  0  0  0  0  0  0
    4.8028   -3.0816    0.0000 C   0  0  0  0  0  0  0  0  0  0  0  0
    7.4008   -0.0817    0.0000 C   0  0  0  0  0  0  0  0  0  0  0  0
    8.6998   -0.8317    0.0000 O   0  0  0  0  0  0  0  0  0  0  0  0
    7.4008    1.4182    0.0000 O   0  0  0  0  0  0  0  0  0  0  0  0
   -3.1480   -4.5734    0.0000 N   0  0  0  0  0  0  0  0  0  0  0  0
   -4.6151   -4.8852    0.0000 C   0  0  0  0  0  0  0  0  0  0  0  0
   -5.3650   -3.5862    0.0000 C   0  0  0  0  0  0  0  0  0  0  0  0
   -6.8568   -3.4294    0.0000 N   0  3  0  0  0  0  0  0  0  0  0  0
   -7.7386   -4.6429    0.0000 O   0  0  0  0  0  0  0  0  0  0  0  0
   -7.4670   -2.0591    0.0000 O   0  5  0  0  0  0  0  0  0  0  0  0
  1  2  1  0  0  0  0
  2  3  1  0  0  0  0
  3  4  1  0  0  0  0
  4  5  1  0  0  0  0
  5  6  1  0  0  0  0
  6  7  1  0  0  0  0
  7  8  1  0  0  0  0
  8  9  2  0  0  0  0
  9 10  1  0  0  0  0
 10 11  2  0  0  0  0
 11 12  1  0  0  0  0
 12 13  2  0  0  0  0
  8 13  1  0  0  0  0
 11 14  1  0  0  0  0
 14 15  2  0  0  0  0
 14 16  1  0  0  0  0
  3 17  2  0  0  0  0
 17 18  1  0  0  0  0
 18 19  2  0  0  0  0
  2 19  1  0  0  0  0
 19 20  1  0  0  0  0
 20 21  2  0  0  0  0
 20 22  1  0  0  0  0
M  CHG  2  20   1  22  -1
M  END
> <Molecule Name>
CHEMBL3274636

> <IUPAC>
4-{2-[(1-methyl-5-nitro-1H-imidazol-2-yl)sulfanyl]ethoxy}benzoic acid

> <ChEMBL_Data_Neisseria_g: NUM_RO5_VIOLATIONS>
0

> <ChEMBL_Data_Neisseria_g: Qualifier_for_MIC_Ng>
=

> <ChEMBL_Data_Neisseria_g: ASSAY_CHEMBLID>
CHEMBL3283002

> <ChEMBL_Data_Neisseria_g: DESCRIPTION_of_Assay_Ng>
Antibacterial activity against Neisseria gonorrhoeae ATCC 19424 after 48 hrs by ten-fold serial dilution method

> <ChEMBL_Data_Neisseria_g: PUBMED_ID>
412966

> <ChEMBL_Data_Neisseria_g: YEAR>
1977

> <ChEMBL_Data_Neisseria_g: JOURNAL>
J. Med. Chem.

> <ChEMBL_Data_Neisseria_g: VOLUME>
20

> <ChEMBL_Data_Neisseria_g: FIRST_PAGE>
1697

> <ChEMBL_Data_Neisseria_g: MIC_vs_Neisseria_microg_per_mL>
1

> <ALogP>
2.287

> <Active>
1

> <Molecular_Weight>
323.324

> <ChEMBL_Data_Neisseria_g: STRAIN_of_Ng>
ATCC 19424

$$$$

Generated by Molecular Materials Informatics

 19 20  0  0  0  0  0  0  0  0999 V2000
   -3.7784   -3.9456    0.0000 C   0  0  0  0  0  0  0  0  0  0  0  0
   -3.4666   -2.4785    0.0000 N   0  0  0  0  0  0  0  0  0  0  0  0
   -4.4702   -1.3638    0.0000 C   0  0  0  0  0  0  0  0  0  0  0  0
   -3.7202   -0.0648    0.0000 C   0  0  0  0  0  0  0  0  0  0  0  0
   -2.2530   -0.3766    0.0000 N   0  0  0  0  0  0  0  0  0  0  0  0
   -2.0963   -1.8683    0.0000 C   0  0  0  0  0  0  0  0  0  0  0  0
   -0.7972   -2.6183    0.0000 S   0  0  0  0  0  0  0  0  0  0  0  0
    0.5017   -1.8683    0.0000 C   0  0  0  0  0  0  0  0  0  0  0  0
    1.8007   -2.6183    0.0000 C   0  0  0  0  0  0  0  0  0  0  0  0
    3.0998   -1.8683    0.0000 O   0  0  0  0  0  0  0  0  0  0  0  0
    4.3988   -2.6183    0.0000 C   0  0  0  0  0  0  0  0  0  0  0  0
    5.6977   -1.8683    0.0000 C   0  0  0  0  0  0  0  0  0  0  0  0
    6.9968   -2.6183    0.0000 C   0  0  0  0  0  0  0  0  0  0  0  0
    6.9968   -4.1183    0.0000 C   0  0  0  0  0  0  0  0  0  0  0  0
    5.6977   -4.8683    0.0000 C   0  0  0  0  0  0  0  0  0  0  0  0
    4.3988   -4.1183    0.0000 C   0  0  0  0  0  0  0  0  0  0  0  0
    8.2958   -4.8683    0.0000 C   0  0  0  0  0  0  0  0  0  0  0  0
    9.5947   -4.1183    0.0000 O   0  0  0  0  0  0  0  0  0  0  0  0
    8.2958   -6.3682    0.0000 O   0  0  0  0  0  0  0  0  0  0  0  0
  1  2  1  0  0  0  0
  2  3  1  0  0  0  0
  3  4  2  0  0  0  0
  4  5  1  0  0  0  0
  5  6  2  0  0  0  0
  2  6  1  0  0  0  0
  6  7  1  0  0  0  0
  7  8  1  0  0  0  0
  8  9  1  0  0  0  0
  9 10  1  0  0  0  0
 10 11  1  0  0  0  0
 11 12  2  0  0  0  0
 12 13  1  0  0  0  0
 13 14  2  0  0  0  0
 14 15  1  0  0  0  0
 15 16  2  0  0  0  0
 11 16  1  0  0  0  0
 14 17  1  0  0  0  0
 17 18  2  0  0  0  0
 17 19  1  0  0  0  0
M  END
> <Molecule Name>
CHEMBL3274635

> <IUPAC>
4-{2-[(1-methyl-1H-imidazol-2-yl)sulfanyl]ethoxy}benzoic acid

> <ChEMBL_Data_Neisseria_g: NUM_RO5_VIOLATIONS>
0

> <ChEMBL_Data_Neisseria_g: Qualifier_for_MIC_Ng>
>

> <ChEMBL_Data_Neisseria_g: ASSAY_CHEMBLID>
CHEMBL3283002

> <ChEMBL_Data_Neisseria_g: DESCRIPTION_of_Assay_Ng>
Antibacterial activity against Neisseria gonorrhoeae ATCC 19424 after 48 hrs by ten-fold serial dilution method

> <ChEMBL_Data_Neisseria_g: PUBMED_ID>
412966

> <ChEMBL_Data_Neisseria_g: YEAR>
1977

> <ChEMBL_Data_Neisseria_g: JOURNAL>
J. Med. Chem.

> <ChEMBL_Data_Neisseria_g: VOLUME>
20

> <ChEMBL_Data_Neisseria_g: FIRST_PAGE>
1697

> <ChEMBL_Data_Neisseria_g: MIC_vs_Neisseria_microg_per_mL>
100

> <ALogP>
2.268

> <Active>
0

> <Molecular_Weight>
278.327

> <ChEMBL_Data_Neisseria_g: STRAIN_of_Ng>
ATCC 19424

$$$$

Generated by Molecular Materials Informatics

 22 23  0  0  0  0  0  0  0  0999 V2000
   -0.8342   -0.1230    0.0000 C   0  0  0  0  0  0  0  0  0  0  0  0
   -1.9489   -1.1266    0.0000 N   0  0  0  0  0  0  0  0  0  0  0  0
   -1.7922   -2.6184    0.0000 C   0  0  0  0  0  0  0  0  0  0  0  0
   -3.1625   -3.2286    0.0000 N   0  0  0  0  0  0  0  0  0  0  0  0
   -4.1661   -2.1139    0.0000 C   0  0  0  0  0  0  0  0  0  0  0  0
   -3.4161   -0.8148    0.0000 C   0  0  0  0  0  0  0  0  0  0  0  0
   -4.0263    0.5555    0.0000 N   0  3  0  0  0  0  0  0  0  0  0  0
   -5.5179    0.7122    0.0000 O   0  0  0  0  0  0  0  0  0  0  0  0
   -3.1445    1.7690    0.0000 O   0  5  0  0  0  0  0  0  0  0  0  0
   -0.4931   -3.3684    0.0000 S   0  3  0  0  0  0  0  0  0  0  0  0
   -0.4931   -4.8684    0.0000 O   0  5  0  0  0  0  0  0  0  0  0  0
    0.8058   -2.6184    0.0000 C   0  0  0  0  0  0  0  0  0  0  0  0
    2.1049   -3.3684    0.0000 C   0  0  0  0  0  0  0  0  0  0  0  0
    3.4039   -2.6184    0.0000 O   0  0  0  0  0  0  0  0  0  0  0  0
    4.7030   -3.3684    0.0000 C   0  0  0  0  0  0  0  0  0  0  0  0
    6.0019   -2.6184    0.0000 C   0  0  0  0  0  0  0  0  0  0  0  0
    7.3009   -3.3684    0.0000 C   0  0  0  0  0  0  0  0  0  0  0  0
    7.3009   -4.8684    0.0000 C   0  0  0  0  0  0  0  0  0  0  0  0
    6.0019   -5.6184    0.0000 C   0  0  0  0  0  0  0  0  0  0  0  0
    4.7030   -4.8684    0.0000 C   0  0  0  0  0  0  0  0  0  0  0  0
    8.6000   -5.6184    0.0000 C   0  0  0  0  0  0  0  0  0  0  0  0
    9.8989   -6.3684    0.0000 N   0  0  0  0  0  0  0  0  0  0  0  0
  1  2  1  0  0  0  0
  2  3  1  0  0  0  0
  3  4  2  0  0  0  0
  4  5  1  0  0  0  0
  5  6  2  0  0  0  0
  2  6  1  0  0  0  0
  6  7  1  0  0  0  0
  7  8  2  0  0  0  0
  7  9  1  0  0  0  0
  3 10  1  0  0  0  0
 10 11  1  0  0  0  0
 10 12  1  0  0  0  0
 12 13  1  0  0  0  0
 13 14  1  0  0  0  0
 14 15  1  0  0  0  0
 15 16  2  0  0  0  0
 16 17  1  0  0  0  0
 17 18  2  0  0  0  0
 18 19  1  0  0  0  0
 19 20  2  0  0  0  0
 15 20  1  0  0  0  0
 18 21  1  0  0  0  0
 21 22  3  0  0  0  0
M  CHG  4   7   1   9  -1  10   1  11  -1
M  END
> <Molecule Name>
CHEMBL3274634

> <IUPAC>
4-{2-[(1-methyl-5-nitro-1H-imidazol-2-yl)sulfinyl]ethoxy}benzonitrile

> <ChEMBL_Data_Neisseria_g: NUM_RO5_VIOLATIONS>
0

> <ChEMBL_Data_Neisseria_g: Qualifier_for_MIC_Ng>
=

> <ChEMBL_Data_Neisseria_g: ASSAY_CHEMBLID>
CHEMBL3283002

> <ChEMBL_Data_Neisseria_g: DESCRIPTION_of_Assay_Ng>
Antibacterial activity against Neisseria gonorrhoeae ATCC 19424 after 48 hrs by ten-fold serial dilution method

> <ChEMBL_Data_Neisseria_g: PUBMED_ID>
412966

> <ChEMBL_Data_Neisseria_g: YEAR>
1977

> <ChEMBL_Data_Neisseria_g: JOURNAL>
J. Med. Chem.

> <ChEMBL_Data_Neisseria_g: VOLUME>
20

> <ChEMBL_Data_Neisseria_g: FIRST_PAGE>
1697

> <ChEMBL_Data_Neisseria_g: MIC_vs_Neisseria_microg_per_mL>
100

> <ALogP>
1.742

> <Active>
0

> <Molecular_Weight>
320.324

> <ChEMBL_Data_Neisseria_g: STRAIN_of_Ng>
ATCC 19424

$$$$

Generated by Molecular Materials Informatics

 21 22  0  0  0  0  0  0  0  0999 V2000
   -4.6732   -0.8357    0.0000 C   0  0  0  0  0  0  0  0  0  0  0  0
   -4.3614   -2.3027    0.0000 N   0  0  0  0  0  0  0  0  0  0  0  0
   -2.9911   -2.9129    0.0000 C   0  0  0  0  0  0  0  0  0  0  0  0
   -1.6922   -2.1629    0.0000 S   0  0  0  0  0  0  0  0  0  0  0  0
   -0.3932   -2.9129    0.0000 C   0  0  0  0  0  0  0  0  0  0  0  0
    0.9059   -2.1629    0.0000 C   0  0  0  0  0  0  0  0  0  0  0  0
    2.2047   -2.9129    0.0000 O   0  0  0  0  0  0  0  0  0  0  0  0
    3.5038   -2.1629    0.0000 C   0  0  0  0  0  0  0  0  0  0  0  0
    3.5038   -0.6630    0.0000 C   0  0  0  0  0  0  0  0  0  0  0  0
    4.8028    0.0870    0.0000 C   0  0  0  0  0  0  0  0  0  0  0  0
    6.1019   -0.6630    0.0000 C   0  0  0  0  0  0  0  0  0  0  0  0
    6.1019   -2.1629    0.0000 C   0  0  0  0  0  0  0  0  0  0  0  0
    4.8028   -2.9129    0.0000 C   0  0  0  0  0  0  0  0  0  0  0  0
    7.4008    0.0870    0.0000 C   0  0  0  0  0  0  0  0  0  0  0  0
    8.6998    0.8370    0.0000 N   0  0  0  0  0  0  0  0  0  0  0  0
   -3.1480   -4.4047    0.0000 N   0  0  0  0  0  0  0  0  0  0  0  0
   -4.6151   -4.7165    0.0000 C   0  0  0  0  0  0  0  0  0  0  0  0
   -5.3650   -3.4174    0.0000 C   0  0  0  0  0  0  0  0  0  0  0  0
   -6.8568   -3.2607    0.0000 N   0  3  0  0  0  0  0  0  0  0  0  0
   -7.7386   -4.4741    0.0000 O   0  0  0  0  0  0  0  0  0  0  0  0
   -7.4670   -1.8904    0.0000 O   0  5  0  0  0  0  0  0  0  0  0  0
  1  2  1  0  0  0  0
  2  3  1  0  0  0  0
  3  4  1  0  0  0  0
  4  5  1  0  0  0  0
  5  6  1  0  0  0  0
  6  7  1  0  0  0  0
  7  8  1  0  0  0  0
  8  9  2  0  0  0  0
  9 10  1  0  0  0  0
 10 11  2  0  0  0  0
 11 12  1  0  0  0  0
 12 13  2  0  0  0  0
  8 13  1  0  0  0  0
 11 14  1  0  0  0  0
 14 15  3  0  0  0  0
  3 16  2  0  0  0  0
 16 17  1  0  0  0  0
 17 18  2  0  0  0  0
  2 18  1  0  0  0  0
 18 19  1  0  0  0  0
 19 20  2  0  0  0  0
 19 21  1  0  0  0  0
M  CHG  2  19   1  21  -1
M  END
> <Molecule Name>
CHEMBL3274633

> <IUPAC>
4-{2-[(1-methyl-5-nitro-1H-imidazol-2-yl)sulfanyl]ethoxy}benzonitrile

> <ChEMBL_Data_Neisseria_g: NUM_RO5_VIOLATIONS>
0

> <ChEMBL_Data_Neisseria_g: Qualifier_for_MIC_Ng>
=

> <ChEMBL_Data_Neisseria_g: ASSAY_CHEMBLID>
CHEMBL3283002

> <ChEMBL_Data_Neisseria_g: DESCRIPTION_of_Assay_Ng>
Antibacterial activity against Neisseria gonorrhoeae ATCC 19424 after 48 hrs by ten-fold serial dilution method

> <ChEMBL_Data_Neisseria_g: PUBMED_ID>
412966

> <ChEMBL_Data_Neisseria_g: YEAR>
1977

> <ChEMBL_Data_Neisseria_g: JOURNAL>
J. Med. Chem.

> <ChEMBL_Data_Neisseria_g: VOLUME>
20

> <ChEMBL_Data_Neisseria_g: FIRST_PAGE>
1697

> <ChEMBL_Data_Neisseria_g: MIC_vs_Neisseria_microg_per_mL>
100

> <ALogP>
2.536

> <Active>
0

> <Molecular_Weight>
304.324

> <ChEMBL_Data_Neisseria_g: STRAIN_of_Ng>
ATCC 19424

$$$$

Generated by Molecular Materials Informatics

 18 19  0  0  0  0  0  0  0  0999 V2000
   -3.7784   -4.1143    0.0000 C   0  0  0  0  0  0  0  0  0  0  0  0
   -3.4666   -2.6473    0.0000 N   0  0  0  0  0  0  0  0  0  0  0  0
   -4.4702   -1.5326    0.0000 C   0  0  0  0  0  0  0  0  0  0  0  0
   -3.7202   -0.2335    0.0000 C   0  0  0  0  0  0  0  0  0  0  0  0
   -2.2530   -0.5453    0.0000 N   0  0  0  0  0  0  0  0  0  0  0  0
   -2.0963   -2.0371    0.0000 C   0  0  0  0  0  0  0  0  0  0  0  0
   -0.7972   -2.7871    0.0000 S   0  0  0  0  0  0  0  0  0  0  0  0
    0.5017   -2.0371    0.0000 C   0  0  0  0  0  0  0  0  0  0  0  0
    1.8007   -2.7871    0.0000 C   0  0  0  0  0  0  0  0  0  0  0  0
    3.0998   -2.0371    0.0000 O   0  0  0  0  0  0  0  0  0  0  0  0
    4.3988   -2.7871    0.0000 C   0  0  0  0  0  0  0  0  0  0  0  0
    5.6977   -2.0371    0.0000 C   0  0  0  0  0  0  0  0  0  0  0  0
    6.9968   -2.7871    0.0000 C   0  0  0  0  0  0  0  0  0  0  0  0
    6.9968   -4.2870    0.0000 C   0  0  0  0  0  0  0  0  0  0  0  0
    5.6977   -5.0370    0.0000 C   0  0  0  0  0  0  0  0  0  0  0  0
    4.3988   -4.2870    0.0000 C   0  0  0  0  0  0  0  0  0  0  0  0
    8.2958   -5.0370    0.0000 C   0  0  0  0  0  0  0  0  0  0  0  0
    9.5947   -5.7870    0.0000 N   0  0  0  0  0  0  0  0  0  0  0  0
  1  2  1  0  0  0  0
  2  3  1  0  0  0  0
  3  4  2  0  0  0  0
  4  5  1  0  0  0  0
  5  6  2  0  0  0  0
  2  6  1  0  0  0  0
  6  7  1  0  0  0  0
  7  8  1  0  0  0  0
  8  9  1  0  0  0  0
  9 10  1  0  0  0  0
 10 11  1  0  0  0  0
 11 12  2  0  0  0  0
 12 13  1  0  0  0  0
 13 14  2  0  0  0  0
 14 15  1  0  0  0  0
 15 16  2  0  0  0  0
 11 16  1  0  0  0  0
 14 17  1  0  0  0  0
 17 18  3  0  0  0  0
M  END
> <Molecule Name>
CHEMBL3274632

> <IUPAC>
4-{2-[(1-methyl-1H-imidazol-2-yl)sulfanyl]ethoxy}benzonitrile

> <ChEMBL_Data_Neisseria_g: NUM_RO5_VIOLATIONS>
0

> <ChEMBL_Data_Neisseria_g: Qualifier_for_MIC_Ng>
>

> <ChEMBL_Data_Neisseria_g: ASSAY_CHEMBLID>
CHEMBL3283002

> <ChEMBL_Data_Neisseria_g: DESCRIPTION_of_Assay_Ng>
Antibacterial activity against Neisseria gonorrhoeae ATCC 19424 after 48 hrs by ten-fold serial dilution method

> <ChEMBL_Data_Neisseria_g: PUBMED_ID>
412966

> <ChEMBL_Data_Neisseria_g: YEAR>
1977

> <ChEMBL_Data_Neisseria_g: JOURNAL>
J. Med. Chem.

> <ChEMBL_Data_Neisseria_g: VOLUME>
20

> <ChEMBL_Data_Neisseria_g: FIRST_PAGE>
1697

> <ChEMBL_Data_Neisseria_g: MIC_vs_Neisseria_microg_per_mL>
100

> <ALogP>
2.517

> <Active>
0

> <Molecular_Weight>
259.327

> <ChEMBL_Data_Neisseria_g: STRAIN_of_Ng>
ATCC 19424

$$$$

Generated by Molecular Materials Informatics

 22 23  0  0  0  0  0  0  0  0999 V2000
   -4.6732   -1.0044    0.0000 C   0  0  0  0  0  0  0  0  0  0  0  0
   -4.3614   -2.4715    0.0000 N   0  0  0  0  0  0  0  0  0  0  0  0
   -2.9911   -3.0816    0.0000 C   0  0  0  0  0  0  0  0  0  0  0  0
   -1.6922   -2.3317    0.0000 S   0  0  0  0  0  0  0  0  0  0  0  0
   -0.3932   -3.0816    0.0000 C   0  0  0  0  0  0  0  0  0  0  0  0
    0.9059   -2.3317    0.0000 C   0  0  0  0  0  0  0  0  0  0  0  0
    2.2047   -3.0816    0.0000 O   0  0  0  0  0  0  0  0  0  0  0  0
    3.5038   -2.3317    0.0000 C   0  0  0  0  0  0  0  0  0  0  0  0
    3.5038   -0.8317    0.0000 C   0  0  0  0  0  0  0  0  0  0  0  0
    4.8028   -0.0817    0.0000 C   0  0  0  0  0  0  0  0  0  0  0  0
    6.1019   -0.8317    0.0000 C   0  0  0  0  0  0  0  0  0  0  0  0
    6.1019   -2.3317    0.0000 C   0  0  0  0  0  0  0  0  0  0  0  0
    4.8028   -3.0816    0.0000 C   0  0  0  0  0  0  0  0  0  0  0  0
    7.4008   -0.0817    0.0000 N   0  3  0  0  0  0  0  0  0  0  0  0
    8.6998   -0.8317    0.0000 O   0  0  0  0  0  0  0  0  0  0  0  0
    7.4008    1.4182    0.0000 O   0  5  0  0  0  0  0  0  0  0  0  0
   -3.1480   -4.5734    0.0000 N   0  0  0  0  0  0  0  0  0  0  0  0
   -4.6151   -4.8852    0.0000 C   0  0  0  0  0  0  0  0  0  0  0  0
   -5.3650   -3.5862    0.0000 C   0  0  0  0  0  0  0  0  0  0  0  0
   -6.8568   -3.4294    0.0000 N   0  3  0  0  0  0  0  0  0  0  0  0
   -7.7386   -4.6429    0.0000 O   0  0  0  0  0  0  0  0  0  0  0  0
   -7.4670   -2.0591    0.0000 O   0  5  0  0  0  0  0  0  0  0  0  0
  1  2  1  0  0  0  0
  2  3  1  0  0  0  0
  3  4  1  0  0  0  0
  4  5  1  0  0  0  0
  5  6  1  0  0  0  0
  6  7  1  0  0  0  0
  7  8  1  0  0  0  0
  8  9  2  0  0  0  0
  9 10  1  0  0  0  0
 10 11  2  0  0  0  0
 11 12  1  0  0  0  0
 12 13  2  0  0  0  0
  8 13  1  0  0  0  0
 11 14  1  0  0  0  0
 14 15  2  0  0  0  0
 14 16  1  0  0  0  0
  3 17  2  0  0  0  0
 17 18  1  0  0  0  0
 18 19  2  0  0  0  0
  2 19  1  0  0  0  0
 19 20  1  0  0  0  0
 20 21  2  0  0  0  0
 20 22  1  0  0  0  0
M  CHG  4  14   1  16  -1  20   1  22  -1
M  END
> <Molecule Name>
CHEMBL3274630

> <IUPAC>
1-methyl-5-nitro-2-{[2-(4-nitrophenoxy)ethyl]sulfanyl}-1H-imidazole

> <ChEMBL_Data_Neisseria_g: NUM_RO5_VIOLATIONS>
0

> <ChEMBL_Data_Neisseria_g: Qualifier_for_MIC_Ng>
>

> <ChEMBL_Data_Neisseria_g: ASSAY_CHEMBLID>
CHEMBL3283002

> <ChEMBL_Data_Neisseria_g: DESCRIPTION_of_Assay_Ng>
Antibacterial activity against Neisseria gonorrhoeae ATCC 19424 after 48 hrs by ten-fold serial dilution method

> <ChEMBL_Data_Neisseria_g: PUBMED_ID>
412966

> <ChEMBL_Data_Neisseria_g: YEAR>
1977

> <ChEMBL_Data_Neisseria_g: JOURNAL>
J. Med. Chem.

> <ChEMBL_Data_Neisseria_g: VOLUME>
20

> <ChEMBL_Data_Neisseria_g: FIRST_PAGE>
1697

> <ChEMBL_Data_Neisseria_g: MIC_vs_Neisseria_microg_per_mL>
100

> <ALogP>
2.552

> <Active>
0

> <Molecular_Weight>
324.312

> <ChEMBL_Data_Neisseria_g: STRAIN_of_Ng>
ATCC 19424

$$$$

Generated by Molecular Materials Informatics

 19 20  0  0  0  0  0  0  0  0999 V2000
   -0.4961   -0.9168    0.0000 C   0  0  0  0  0  0  0  0  0  0  0  0
   -0.1841    0.5505    0.0000 N   0  0  0  0  0  0  0  0  0  0  0  0
   -1.1879    1.6652    0.0000 C   0  0  0  0  0  0  0  0  0  0  0  0
   -0.4379    2.9642    0.0000 C   0  0  0  0  0  0  0  0  0  0  0  0
    1.0293    2.6524    0.0000 N   0  0  0  0  0  0  0  0  0  0  0  0
    1.1860    1.1606    0.0000 C   0  0  0  0  0  0  0  0  0  0  0  0
    2.4851    0.4107    0.0000 S   0  0  0  0  0  0  0  0  0  0  0  0
    3.7841    1.1606    0.0000 C   0  0  0  0  0  0  0  0  0  0  0  0
    5.0832    0.4107    0.0000 C   0  0  0  0  0  0  0  0  0  0  0  0
    6.3820    1.1606    0.0000 O   0  0  0  0  0  0  0  0  0  0  0  0
    7.6811    0.4107    0.0000 C   0  0  0  0  0  0  0  0  0  0  0  0
    8.9801    1.1606    0.0000 C   0  0  0  0  0  0  0  0  0  0  0  0
   10.2790    0.4107    0.0000 C   0  0  0  0  0  0  0  0  0  0  0  0
   10.2790   -1.0893    0.0000 C   0  0  0  0  0  0  0  0  0  0  0  0
    8.9801   -1.8393    0.0000 C   0  0  0  0  0  0  0  0  0  0  0  0
    7.6811   -1.0893    0.0000 C   0  0  0  0  0  0  0  0  0  0  0  0
   11.5781   -1.8393    0.0000 N   0  3  0  0  0  0  0  0  0  0  0  0
   12.8771   -1.0893    0.0000 O   0  0  0  0  0  0  0  0  0  0  0  0
   11.5781   -3.3392    0.0000 O   0  5  0  0  0  0  0  0  0  0  0  0
  1  2  1  0  0  0  0
  2  3  1  0  0  0  0
  3  4  2  0  0  0  0
  4  5  1  0  0  0  0
  5  6  2  0  0  0  0
  2  6  1  0  0  0  0
  6  7  1  0  0  0  0
  7  8  1  0  0  0  0
  8  9  1  0  0  0  0
  9 10  1  0  0  0  0
 10 11  1  0  0  0  0
 11 12  2  0  0  0  0
 12 13  1  0  0  0  0
 13 14  2  0  0  0  0
 14 15  1  0  0  0  0
 15 16  2  0  0  0  0
 11 16  1  0  0  0  0
 14 17  1  0  0  0  0
 17 18  2  0  0  0  0
 17 19  1  0  0  0  0
M  CHG  2  17   1  19  -1
M  END
> <Molecule Name>
CHEMBL3274629

> <IUPAC>
1-methyl-2-{[2-(4-nitrophenoxy)ethyl]sulfanyl}-1H-imidazole hydrobromide

> <ChEMBL_Data_Neisseria_g: NUM_RO5_VIOLATIONS>
0

> <ChEMBL_Data_Neisseria_g: Qualifier_for_MIC_Ng>
=

> <ChEMBL_Data_Neisseria_g: ASSAY_CHEMBLID>
CHEMBL3283002

> <ChEMBL_Data_Neisseria_g: DESCRIPTION_of_Assay_Ng>
Antibacterial activity against Neisseria gonorrhoeae ATCC 19424 after 48 hrs by ten-fold serial dilution method

> <ChEMBL_Data_Neisseria_g: PUBMED_ID>
412966

> <ChEMBL_Data_Neisseria_g: YEAR>
1977

> <ChEMBL_Data_Neisseria_g: JOURNAL>
J. Med. Chem.

> <ChEMBL_Data_Neisseria_g: VOLUME>
20

> <ChEMBL_Data_Neisseria_g: FIRST_PAGE>
1697

> <ChEMBL_Data_Neisseria_g: MIC_vs_Neisseria_microg_per_mL>
100

> <ALogP>
3.024

> <Active>
0

> <Molecular_Weight>
279.315

> <ChEMBL_Data_Neisseria_g: STRAIN_of_Ng>
ATCC 19424

$$$$

Generated by Molecular Materials Informatics

 20 21  0  0  0  0  0  0  0  0999 V2000
   -4.3810   -0.6670    0.0000 C   0  0  0  0  0  0  0  0  0  0  0  0
   -4.0692   -2.1340    0.0000 N   0  0  0  0  0  0  0  0  0  0  0  0
   -2.6988   -2.7442    0.0000 C   0  0  0  0  0  0  0  0  0  0  0  0
   -1.4000   -1.9942    0.0000 S   0  0  0  0  0  0  0  0  0  0  0  0
   -0.1009   -2.7442    0.0000 C   0  0  0  0  0  0  0  0  0  0  0  0
    1.1981   -1.9942    0.0000 C   0  0  0  0  0  0  0  0  0  0  0  0
    2.4970   -2.7442    0.0000 O   0  0  0  0  0  0  0  0  0  0  0  0
    3.7961   -1.9942    0.0000 C   0  0  0  0  0  0  0  0  0  0  0  0
    3.7961   -0.4942    0.0000 C   0  0  0  0  0  0  0  0  0  0  0  0
    5.0951    0.2557    0.0000 C   0  0  0  0  0  0  0  0  0  0  0  0
    6.3942   -0.4942    0.0000 C   0  0  0  0  0  0  0  0  0  0  0  0
    7.6930    0.2557    0.0000 Br  0  0  0  0  0  0  0  0  0  0  0  0
    6.3942   -1.9942    0.0000 C   0  0  0  0  0  0  0  0  0  0  0  0
    5.0951   -2.7442    0.0000 C   0  0  0  0  0  0  0  0  0  0  0  0
   -2.8557   -4.2359    0.0000 N   0  0  0  0  0  0  0  0  0  0  0  0
   -4.3228   -4.5477    0.0000 C   0  0  0  0  0  0  0  0  0  0  0  0
   -5.0728   -3.2487    0.0000 C   0  0  0  0  0  0  0  0  0  0  0  0
   -6.5645   -3.0920    0.0000 N   0  3  0  0  0  0  0  0  0  0  0  0
   -7.4463   -4.3054    0.0000 O   0  0  0  0  0  0  0  0  0  0  0  0
   -7.1747   -1.7216    0.0000 O   0  5  0  0  0  0  0  0  0  0  0  0
  1  2  1  0  0  0  0
  2  3  1  0  0  0  0
  3  4  1  0  0  0  0
  4  5  1  0  0  0  0
  5  6  1  0  0  0  0
  6  7  1  0  0  0  0
  7  8  1  0  0  0  0
  8  9  2  0  0  0  0
  9 10  1  0  0  0  0
 10 11  2  0  0  0  0
 11 12  1  0  0  0  0
 11 13  1  0  0  0  0
 13 14  2  0  0  0  0
  8 14  1  0  0  0  0
  3 15  2  0  0  0  0
 15 16  1  0  0  0  0
 16 17  2  0  0  0  0
  2 17  1  0  0  0  0
 17 18  1  0  0  0  0
 18 19  2  0  0  0  0
 18 20  1  0  0  0  0
M  CHG  2  18   1  20  -1
M  END
> <Molecule Name>
CHEMBL3274628

> <IUPAC>
2-{[2-(4-bromophenoxy)ethyl]sulfanyl}-1-methyl-5-nitro-1H-imidazole

> <ChEMBL_Data_Neisseria_g: NUM_RO5_VIOLATIONS>
0

> <ChEMBL_Data_Neisseria_g: Qualifier_for_MIC_Ng>
>

> <ChEMBL_Data_Neisseria_g: ASSAY_CHEMBLID>
CHEMBL3283002

> <ChEMBL_Data_Neisseria_g: DESCRIPTION_of_Assay_Ng>
Antibacterial activity against Neisseria gonorrhoeae ATCC 19424 after 48 hrs by ten-fold serial dilution method

> <ChEMBL_Data_Neisseria_g: PUBMED_ID>
412966

> <ChEMBL_Data_Neisseria_g: YEAR>
1977

> <ChEMBL_Data_Neisseria_g: JOURNAL>
J. Med. Chem.

> <ChEMBL_Data_Neisseria_g: VOLUME>
20

> <ChEMBL_Data_Neisseria_g: FIRST_PAGE>
1697

> <ChEMBL_Data_Neisseria_g: MIC_vs_Neisseria_microg_per_mL>
100

> <ALogP>
3.406

> <Active>
0

> <Molecular_Weight>
358.211

> <ChEMBL_Data_Neisseria_g: STRAIN_of_Ng>
ATCC 19424

$$$$

Generated by Molecular Materials Informatics

 17 18  0  0  0  0  0  0  0  0999 V2000
   -0.2038   -1.4074    0.0000 C   0  0  0  0  0  0  0  0  0  0  0  0
    0.1082    0.0598    0.0000 N   0  0  0  0  0  0  0  0  0  0  0  0
   -0.8956    1.1745    0.0000 C   0  0  0  0  0  0  0  0  0  0  0  0
   -0.1457    2.4735    0.0000 C   0  0  0  0  0  0  0  0  0  0  0  0
    1.3216    2.1616    0.0000 N   0  0  0  0  0  0  0  0  0  0  0  0
    1.4783    0.6700    0.0000 C   0  0  0  0  0  0  0  0  0  0  0  0
    2.7773   -0.0800    0.0000 S   0  0  0  0  0  0  0  0  0  0  0  0
    4.0764    0.6700    0.0000 C   0  0  0  0  0  0  0  0  0  0  0  0
    5.3754   -0.0800    0.0000 C   0  0  0  0  0  0  0  0  0  0  0  0
    6.6743    0.6700    0.0000 O   0  0  0  0  0  0  0  0  0  0  0  0
    7.9734   -0.0800    0.0000 C   0  0  0  0  0  0  0  0  0  0  0  0
    9.2724    0.6700    0.0000 C   0  0  0  0  0  0  0  0  0  0  0  0
   10.5713   -0.0800    0.0000 C   0  0  0  0  0  0  0  0  0  0  0  0
   10.5713   -1.5800    0.0000 C   0  0  0  0  0  0  0  0  0  0  0  0
   11.8703   -2.3299    0.0000 Br  0  0  0  0  0  0  0  0  0  0  0  0
    9.2724   -2.3299    0.0000 C   0  0  0  0  0  0  0  0  0  0  0  0
    7.9734   -1.5800    0.0000 C   0  0  0  0  0  0  0  0  0  0  0  0
  1  2  1  0  0  0  0
  2  3  1  0  0  0  0
  3  4  2  0  0  0  0
  4  5  1  0  0  0  0
  5  6  2  0  0  0  0
  2  6  1  0  0  0  0
  6  7  1  0  0  0  0
  7  8  1  0  0  0  0
  8  9  1  0  0  0  0
  9 10  1  0  0  0  0
 10 11  1  0  0  0  0
 11 12  2  0  0  0  0
 12 13  1  0  0  0  0
 13 14  2  0  0  0  0
 14 15  1  0  0  0  0
 14 16  1  0  0  0  0
 16 17  2  0  0  0  0
 11 17  1  0  0  0  0
M  END
> <Molecule Name>
CHEMBL3274627

> <IUPAC>
2-{[2-(4-bromophenoxy)ethyl]sulfanyl}-1-methyl-1H-imidazole hydrobromide

> <ChEMBL_Data_Neisseria_g: NUM_RO5_VIOLATIONS>
0

> <ChEMBL_Data_Neisseria_g: Qualifier_for_MIC_Ng>
=

> <ChEMBL_Data_Neisseria_g: ASSAY_CHEMBLID>
CHEMBL3283002

> <ChEMBL_Data_Neisseria_g: DESCRIPTION_of_Assay_Ng>
Antibacterial activity against Neisseria gonorrhoeae ATCC 19424 after 48 hrs by ten-fold serial dilution method

> <ChEMBL_Data_Neisseria_g: PUBMED_ID>
412966

> <ChEMBL_Data_Neisseria_g: YEAR>
1977

> <ChEMBL_Data_Neisseria_g: JOURNAL>
J. Med. Chem.

> <ChEMBL_Data_Neisseria_g: VOLUME>
20

> <ChEMBL_Data_Neisseria_g: FIRST_PAGE>
1697

> <ChEMBL_Data_Neisseria_g: MIC_vs_Neisseria_microg_per_mL>
100

> <ALogP>
3.878

> <Active>
0

> <Molecular_Weight>
313.213

> <ChEMBL_Data_Neisseria_g: STRAIN_of_Ng>
ATCC 19424

$$$$

Generated by Molecular Materials Informatics

 33 35  0  0  0  0  0  0  0  0999 V2000
    6.1487    6.4406    0.0000 C   0  0  0  0  0  0  0  0  0  0  0  0
    6.1487    4.9406    0.0000 N   0  0  0  0  0  0  0  0  0  0  0  0
    4.8498    4.1906    0.0000 C   0  0  0  0  0  0  0  0  0  0  0  0
    3.5507    4.9406    0.0000 C   0  0  0  0  0  0  0  0  0  0  0  0
    4.8498    2.6906    0.0000 C   0  0  0  0  0  0  0  0  0  0  0  0
    6.1487    1.9406    0.0000 C   0  0  0  0  0  0  0  0  0  0  0  0
    6.1487    0.4406    0.0000 C   0  0  0  0  0  0  0  0  0  0  0  0
    4.8498   -0.3094    0.0000 C   0  0  0  0  0  0  0  0  0  0  0  0
    4.8498   -1.8094    0.0000 N   0  0  0  0  0  0  0  0  0  0  0  0
    3.5507    0.4406    0.0000 C   0  0  0  0  0  0  0  0  0  0  0  0
    2.2516   -0.3094    0.0000 O   0  0  0  0  0  0  0  0  0  0  0  0
    0.9527    0.4406    0.0000 C   0  0  0  0  0  0  0  0  0  0  0  0
    0.9527    1.9406    0.0000 C   0  0  0  0  0  0  0  0  0  0  0  0
    2.2516    2.6906    0.0000 N   0  0  0  0  0  0  0  0  0  0  0  0
   -0.3464    2.6906    0.0000 C   0  0  0  0  0  0  0  0  0  0  0  0
   -1.6454    1.9406    0.0000 C   0  0  0  0  0  0  0  0  0  0  0  0
   -2.9445    2.6906    0.0000 N   0  0  0  0  0  0  0  0  0  0  0  0
   -1.6454    0.4406    0.0000 C   0  0  0  0  0  0  0  0  0  0  0  0
   -2.9445   -0.3094    0.0000 O   0  0  0  0  0  0  0  0  0  0  0  0
   -2.9445   -1.8094    0.0000 C   0  0  0  0  0  0  0  0  0  0  0  0
   -1.6454   -2.5594    0.0000 O   0  0  0  0  0  0  0  0  0  0  0  0
   -1.6454   -4.0594    0.0000 C   0  0  0  0  0  0  0  0  0  0  0  0
   -2.9445   -4.8094    0.0000 C   0  0  0  0  0  0  0  0  0  0  0  0
   -1.9804   -5.9585    0.0000 C   0  0  0  0  0  0  0  0  0  0  0  0
   -3.9087   -5.9585    0.0000 O   0  0  0  0  0  0  0  0  0  0  0  0
   -4.2434   -4.0594    0.0000 C   0  0  0  0  0  0  0  0  0  0  0  0
   -5.5425   -4.8094    0.0000 N   0  0  0  0  0  0  0  0  0  0  0  0
   -6.8416   -4.0594    0.0000 C   0  0  0  0  0  0  0  0  0  0  0  0
   -4.2434   -2.5594    0.0000 C   0  0  0  0  0  0  0  0  0  0  0  0
   -5.5425   -1.8094    0.0000 O   0  0  0  0  0  0  0  0  0  0  0  0
   -0.3464   -0.3094    0.0000 C   0  0  0  0  0  0  0  0  0  0  0  0
   -0.3464   -1.8094    0.0000 O   0  0  0  0  0  0  0  0  0  0  0  0
    3.5507    1.9406    0.0000 O   0  0  0  0  0  0  0  0  0  0  0  0
  1  2  1  0  0  0  0
  2  3  1  0  0  0  0
  3  4  1  0  0  0  0
  5  3  1  6  0  0  0
  5  6  1  0  0  0  0
  6  7  1  0  0  0  0
  7  8  1  0  0  0  0
  8  9  1  1  0  0  0
  8 10  1  0  0  0  0
 10 11  1  1  0  0  0
 12 11  1  1  0  0  0
 12 13  1  0  0  0  0
 13 14  1  6  0  0  0
 13 15  1  0  0  0  0
 15 16  1  0  0  0  0
 16 17  1  6  0  0  0
 16 18  1  0  0  0  0
 18 19  1  1  0  0  0
 20 19  1  1  0  0  0
 20 21  1  0  0  0  0
 21 22  1  0  0  0  0
 22 23  1  0  0  0  0
 23 24  1  1  0  0  0
 23 25  1  6  0  0  0
 23 26  1  0  0  0  0
 26 27  1  6  0  0  0
 27 28  1  0  0  0  0
 26 29  1  0  0  0  0
 20 29  1  0  0  0  0
 29 30  1  1  0  0  0
 18 31  1  0  0  0  0
 12 31  1  0  0  0  0
 31 32  1  6  0  0  0
 10 33  1  0  0  0  0
  5 33  1  0  0  0  0
M  END
> <Molecule Name>
CHEMBL3039597

> <IUPAC>
(2R,3R,4R,5R)-2-{[(1S,2S,3R,4S,6R)-4,6-diamino-3-{[(2R,3R,6S)-3-amino-6-(1-aminoethyl)oxan-2-yl]oxy}-2-hydroxycyclohexyl]oxy}-5-methyl-4-(methylamino)oxane-3,5-diol; (2R,3R,4R,5R)-2-{[(1S,2S,3R,4S,6R)
-4,6-diamino-3-{[(2R,3R,6S)-3-amino-6-(aminomethyl)oxan-2-yl]oxy}-2-hydroxycyclohexyl]oxy}-5-methyl-4-(methylamino)oxane-3,5-diol; (2R,3R,4R,5R)-2-{[(1S,2S,3R,4S,6R)-4,6-diamino-3-{[(2R,3R,6S)-3-amino
-6-[1-(methylamino)ethyl]oxan-2-yl]oxy}-2-hydroxycyclohexyl]oxy}-5-methyl-4-(methylamino)oxane-3,5-diol

> <Collections>
TrainingSet_Kleb_p_ALPerryman_JSF

> <ChEMBL_Data_Neisseria_g: Molecule_Preferred_NAME>
GENTAMICIN

> <ChEMBL_Data_Neisseria_g: Qualifier_for_MIC_Ng>
=

> <ChEMBL_Data_Neisseria_g: ASSAY_CHEMBLID>
CHEMBL2343213

> <ChEMBL_Data_Neisseria_g: DESCRIPTION_of_Assay_Ng>
Antibacterial activity against Neisseria gonorrhoeae RCMB 010076 assessed as growth inhibition after 24 hrs by twofold serial dilution method

> <ChEMBL_Data_Neisseria_g: PUBMED_ID>
23357308

> <ChEMBL_Data_Neisseria_g: YEAR>
2013

> <ChEMBL_Data_Neisseria_g: JOURNAL>
Eur. J. Med. Chem.

> <ChEMBL_Data_Neisseria_g: VOLUME>
62

> <ChEMBL_Data_Neisseria_g: FIRST_PAGE>
270

> <ChEMBL_Data_Neisseria_g: MIC_vs_Neisseria_microg_per_mL>
7.81

> <ALogP>
-12.679

> <Active>
1

> <Molecular_Weight>
477.595

> <ChEMBL_Data_Neisseria_g: STRAIN_of_Ng>
RCMB 010076

$$$$

Generated by Molecular Materials Informatics

 32 34  0  0  0  0  0  0  0  0999 V2000
   -5.3602    5.3455    0.0000 C   0  0  0  0  0  0  0  0  0  0  0  0
   -3.8830    5.6061    0.0000 N   0  0  0  0  0  0  0  0  0  0  0  0
   -3.3701    7.0155    0.0000 C   0  0  0  0  0  0  0  0  0  0  0  0
   -4.3342    8.1646    0.0000 N   0  0  0  0  0  0  0  0  0  0  0  0
   -3.8212    9.5742    0.0000 C   0  0  0  0  0  0  0  0  0  0  0  0
   -2.3439    9.8346    0.0000 N   0  0  0  0  0  0  0  0  0  0  0  0
   -1.3797    8.6855    0.0000 C   0  0  0  0  0  0  0  0  0  0  0  0
    0.0973    8.9460    0.0000 N   0  0  0  0  0  0  0  0  0  0  0  0
   -1.8928    7.2761    0.0000 C   0  0  0  0  0  0  0  0  0  0  0  0
   -0.9286    6.1270    0.0000 N   0  0  0  0  0  0  0  0  0  0  0  0
   -1.4417    4.7176    0.0000 C   0  0  0  0  0  0  0  0  0  0  0  0
   -0.4776    3.5685    0.0000 C   0  0  0  0  0  0  0  0  0  0  0  0
   -0.9905    2.1589    0.0000 C   0  0  0  0  0  0  0  0  0  0  0  0
   -2.4677    1.8985    0.0000 C   0  0  0  0  0  0  0  0  0  0  0  0
   -0.0263    1.0098    0.0000 C   0  0  0  0  0  0  0  0  0  0  0  0
   -0.5394   -0.3997    0.0000 C   0  0  0  0  0  0  0  0  0  0  0  0
    0.4248   -1.5487    0.0000 C   0  0  0  0  0  0  0  0  0  0  0  0
    1.3890   -0.3997    0.0000 C   0  0  0  0  0  0  0  0  0  0  0  0
   -0.8743   -2.2987    0.0000 C   0  0  0  0  0  0  0  0  0  0  0  0
   -2.1732   -1.5487    0.0000 C   0  0  0  0  0  0  0  0  0  0  0  0
   -0.8743   -3.7987    0.0000 C   0  0  0  0  0  0  0  0  0  0  0  0
    0.4248   -4.5487    0.0000 C   0  0  0  0  0  0  0  0  0  0  0  0
    1.7239   -3.7987    0.0000 C   0  0  0  0  0  0  0  0  0  0  0  0
    1.7239   -5.2987    0.0000 C   0  0  0  0  0  0  0  0  0  0  0  0
    1.7239   -2.2987    0.0000 C   0  0  0  0  0  0  0  0  0  0  0  0
    3.0228   -1.5487    0.0000 C   0  0  0  0  0  0  0  0  0  0  0  0
    4.3218   -2.2987    0.0000 C   0  0  0  0  0  0  0  0  0  0  0  0
    4.3218   -3.7987    0.0000 C   0  0  0  0  0  0  0  0  0  0  0  0
    3.0228   -4.5487    0.0000 C   0  0  0  0  0  0  0  0  0  0  0  0
    3.0228   -6.0487    0.0000 C   0  0  0  0  0  0  0  0  0  0  0  0
    0.5486    6.3875    0.0000 C   0  0  0  0  0  0  0  0  0  0  0  0
    1.5128    5.2385    0.0000 O   0  0  0  0  0  0  0  0  0  0  0  0
  1  2  1  0  0  0  0
  2  3  1  0  0  0  0
  3  4  2  0  0  0  0
  4  5  1  0  0  0  0
  5  6  2  0  0  0  0
  6  7  1  0  0  0  0
  7  8  1  0  0  0  0
  7  9  2  0  0  0  0
  3  9  1  0  0  0  0
  9 10  1  0  0  0  0
 10 11  1  0  0  0  0
 11 12  1  0  0  0  0
 12 13  2  0  0  0  0
 13 14  1  0  0  0  0
 13 15  1  0  0  0  0
 15 16  1  0  0  0  0
 17 16  1  6  0  0  0
 17 18  1  1  0  0  0
 17 19  1  0  0  0  0
 19 20  1  1  0  0  0
 19 21  1  0  0  0  0
 21 22  1  0  0  0  0
 22 23  1  0  0  0  0
 23 24  1  1  0  0  0
 23 25  1  0  0  0  0
 17 25  1  0  0  0  0
 25 26  1  1  0  0  0
 26 27  1  0  0  0  0
 27 28  1  0  0  0  0
 28 29  2  0  0  0  0
 23 29  1  0  0  0  0
 29 30  1  0  0  0  0
 10 31  1  0  0  0  0
 31 32  2  0  0  0  0
M  END
> <Molecule Name>
CHEMBL2337300

> <IUPAC>
N-[(2E)-5-[(1S,2R,4aR,8aR)-1,2,4a,5-tetramethyl-1,2,3,4,4a,7,8,8a-octahydronaphthalen-1-yl]-3-methylpent-2-en-1-yl]-N-[4-amino-6-(methylamino)pyrimidin-5-yl]formamide

> <ChEMBL_Data_Neisseria_g: Molecule_Preferred_NAME>
AXISTATIN 2

> <ChEMBL_Data_Neisseria_g: NUM_RO5_VIOLATIONS>
1

> <ChEMBL_Data_Neisseria_g: Qualifier_for_MIC_Ng>
=

> <ChEMBL_Data_Neisseria_g: ASSAY_CHEMBLID>
CHEMBL2344781

> <ChEMBL_Data_Neisseria_g: DESCRIPTION_of_Assay_Ng>
Antimicrobial activity against Neisseria gonorrhoeae ATCC 49226 by NCCLS broth microdilution assay

> <ChEMBL_Data_Neisseria_g: PUBMED_ID>
23410078

> <ChEMBL_Data_Neisseria_g: YEAR>
2013

> <ChEMBL_Data_Neisseria_g: JOURNAL>
J. Nat. Prod.

> <ChEMBL_Data_Neisseria_g: VOLUME>
76

> <ChEMBL_Data_Neisseria_g: FIRST_PAGE>
420

> <ChEMBL_Data_Neisseria_g: MIC_vs_Neisseria_microg_per_mL>
2

> <ALogP>
5.232

> <Active>
1

> <Molecular_Weight>
439.637

> <ChEMBL_Data_Neisseria_g: STRAIN_of_Ng>
ATCC 49226

$$$$

Generated by Molecular Materials Informatics

 32 34  0  0  0  0  0  0  0  0999 V2000
   -5.3602    5.3455    0.0000 C   0  0  0  0  0  0  0  0  0  0  0  0
   -3.8830    5.6061    0.0000 N   0  0  0  0  0  0  0  0  0  0  0  0
   -3.3701    7.0155    0.0000 C   0  0  0  0  0  0  0  0  0  0  0  0
   -4.3342    8.1646    0.0000 N   0  0  0  0  0  0  0  0  0  0  0  0
   -3.8212    9.5742    0.0000 C   0  0  0  0  0  0  0  0  0  0  0  0
   -2.3439    9.8346    0.0000 N   0  0  0  0  0  0  0  0  0  0  0  0
   -1.3797    8.6855    0.0000 C   0  0  0  0  0  0  0  0  0  0  0  0
    0.0973    8.9460    0.0000 N   0  0  0  0  0  0  0  0  0  0  0  0
   -1.8928    7.2761    0.0000 C   0  0  0  0  0  0  0  0  0  0  0  0
   -0.9286    6.1270    0.0000 N   0  0  0  0  0  0  0  0  0  0  0  0
   -1.4417    4.7176    0.0000 C   0  0  0  0  0  0  0  0  0  0  0  0
   -0.4776    3.5685    0.0000 C   0  0  0  0  0  0  0  0  0  0  0  0
   -0.9905    2.1589    0.0000 C   0  0  0  0  0  0  0  0  0  0  0  0
   -2.4677    1.8985    0.0000 C   0  0  0  0  0  0  0  0  0  0  0  0
   -0.0263    1.0098    0.0000 C   0  0  0  0  0  0  0  0  0  0  0  0
   -0.5394   -0.3997    0.0000 C   0  0  0  0  0  0  0  0  0  0  0  0
    0.4248   -1.5487    0.0000 C   0  0  0  0  0  0  0  0  0  0  0  0
    1.3890   -0.3997    0.0000 C   0  0  0  0  0  0  0  0  0  0  0  0
   -0.8743   -2.2987    0.0000 C   0  0  0  0  0  0  0  0  0  0  0  0
   -2.1732   -1.5487    0.0000 C   0  0  0  0  0  0  0  0  0  0  0  0
   -0.8743   -3.7987    0.0000 C   0  0  0  0  0  0  0  0  0  0  0  0
    0.4248   -4.5487    0.0000 C   0  0  0  0  0  0  0  0  0  0  0  0
    1.7239   -3.7987    0.0000 C   0  0  0  0  0  0  0  0  0  0  0  0
    1.7239   -5.2987    0.0000 C   0  0  0  0  0  0  0  0  0  0  0  0
    1.7239   -2.2987    0.0000 C   0  0  0  0  0  0  0  0  0  0  0  0
    3.0228   -1.5487    0.0000 C   0  0  0  0  0  0  0  0  0  0  0  0
    4.3218   -2.2987    0.0000 C   0  0  0  0  0  0  0  0  0  0  0  0
    4.3218   -3.7987    0.0000 C   0  0  0  0  0  0  0  0  0  0  0  0
    3.0228   -4.5487    0.0000 C   0  0  0  0  0  0  0  0  0  0  0  0
    3.0228   -6.0487    0.0000 C   0  0  0  0  0  0  0  0  0  0  0  0
    0.5486    6.3875    0.0000 C   0  0  0  0  0  0  0  0  0  0  0  0
    1.5128    5.2385    0.0000 O   0  0  0  0  0  0  0  0  0  0  0  0
  1  2  1  0  0  0  0
  2  3  1  0  0  0  0
  3  4  2  0  0  0  0
  4  5  1  0  0  0  0
  5  6  2  0  0  0  0
  6  7  1  0  0  0  0
  7  8  1  0  0  0  0
  7  9  2  0  0  0  0
  3  9  1  0  0  0  0
  9 10  1  0  0  0  0
 10 11  1  0  0  0  0
 11 12  1  0  0  0  0
 12 13  2  0  0  0  0
 13 14  1  0  0  0  0
 13 15  1  0  0  0  0
 15 16  1  0  0  0  0
 17 16  1  1  0  0  0
 17 18  1  6  0  0  0
 17 19  1  0  0  0  0
 19 20  1  6  0  0  0
 19 21  1  0  0  0  0
 21 22  1  0  0  0  0
 22 23  1  0  0  0  0
 23 24  1  1  0  0  0
 23 25  1  0  0  0  0
 17 25  1  0  0  0  0
 25 26  1  6  0  0  0
 26 27  1  0  0  0  0
 27 28  1  0  0  0  0
 28 29  2  0  0  0  0
 23 29  1  0  0  0  0
 29 30  1  0  0  0  0
 10 31  1  0  0  0  0
 31 32  2  0  0  0  0
M  END
> <Molecule Name>
CHEMBL2337299

> <IUPAC>
N-[(2E)-5-[(1R,2S,4aR,8aS)-1,2,4a,5-tetramethyl-1,2,3,4,4a,7,8,8a-octahydronaphthalen-1-yl]-3-methylpent-2-en-1-yl]-N-[4-amino-6-(methylamino)pyrimidin-5-yl]formamide

> <ChEMBL_Data_Neisseria_g: Molecule_Preferred_NAME>
AXISTATIN 1

> <ChEMBL_Data_Neisseria_g: NUM_RO5_VIOLATIONS>
1

> <ChEMBL_Data_Neisseria_g: Qualifier_for_MIC_Ng>
=

> <ChEMBL_Data_Neisseria_g: ASSAY_CHEMBLID>
CHEMBL2344781

> <ChEMBL_Data_Neisseria_g: DESCRIPTION_of_Assay_Ng>
Antimicrobial activity against Neisseria gonorrhoeae ATCC 49226 by NCCLS broth microdilution assay

> <ChEMBL_Data_Neisseria_g: PUBMED_ID>
23410078

> <ChEMBL_Data_Neisseria_g: YEAR>
2013

> <ChEMBL_Data_Neisseria_g: JOURNAL>
J. Nat. Prod.

> <ChEMBL_Data_Neisseria_g: VOLUME>
76

> <ChEMBL_Data_Neisseria_g: FIRST_PAGE>
420

> <ChEMBL_Data_Neisseria_g: MIC_vs_Neisseria_microg_per_mL>
1

> <ALogP>
5.232

> <Active>
1

> <Molecular_Weight>
439.637

> <ChEMBL_Data_Neisseria_g: STRAIN_of_Ng>
ATCC 49226

$$$$

Generated by Molecular Materials Informatics

 35 36  0  0  0  0  0  0  0  0999 V2000
    6.8891   -4.6896    0.0000 C   0  0  0  0  0  0  0  0  0  0  0  0
    8.1882   -5.4396    0.0000 N   0  0  0  0  0  0  0  0  0  0  0  0
    8.1882   -6.9395    0.0000 C   0  0  0  0  0  0  0  0  0  0  0  0
    9.4873   -7.6895    0.0000 N   0  0  0  0  0  0  0  0  0  0  0  0
    9.4873   -9.1895    0.0000 C   0  0  0  0  0  0  0  0  0  0  0  0
    8.1882   -9.9395    0.0000 N   0  0  0  0  0  0  0  0  0  0  0  0
    6.8891   -9.1895    0.0000 C   0  0  0  0  0  0  0  0  0  0  0  0
    5.5902   -9.9395    0.0000 N   0  0  0  0  0  0  0  0  0  0  0  0
    5.5902  -11.4395    0.0000 C   0  0  0  0  0  0  0  0  0  0  0  0
    4.2911  -12.1895    0.0000 C   0  0  0  0  0  0  0  0  0  0  0  0
    6.8891  -12.1895    0.0000 C   0  0  0  0  0  0  0  0  0  0  0  0
    6.8891   -7.6895    0.0000 C   0  0  0  0  0  0  0  0  0  0  0  0
    5.5902   -6.9395    0.0000 N   0  0  0  0  0  0  0  0  0  0  0  0
    5.5902   -5.4396    0.0000 C   0  0  0  0  0  0  0  0  0  0  0  0
    4.2911   -4.6896    0.0000 C   0  0  0  0  0  0  0  0  0  0  0  0
    4.2911   -3.1896    0.0000 C   0  0  0  0  0  0  0  0  0  0  0  0
    5.5902   -2.4396    0.0000 C   0  0  0  0  0  0  0  0  0  0  0  0
    2.9921   -2.4396    0.0000 C   0  0  0  0  0  0  0  0  0  0  0  0
    2.9921   -0.9396    0.0000 C   0  0  0  0  0  0  0  0  0  0  0  0
    1.6930   -0.1896    0.0000 C   0  0  0  0  0  0  0  0  0  0  0  0
    1.6930    1.3104    0.0000 C   0  0  0  0  0  0  0  0  0  0  0  0
    2.9921    2.0603    0.0000 C   0  0  0  0  0  0  0  0  0  0  0  0
    0.3941    2.0603    0.0000 C   0  0  0  0  0  0  0  0  0  0  0  0
    0.3941    3.5603    0.0000 C   0  0  0  0  0  0  0  0  0  0  0  0
    1.6930    4.3103    0.0000 C   0  0  0  0  0  0  0  0  0  0  0  0
    2.2061    2.9009    0.0000 C   0  0  0  0  0  0  0  0  0  0  0  0
    0.7288    5.4594    0.0000 C   0  0  0  0  0  0  0  0  0  0  0  0
   -0.7483    5.1989    0.0000 C   0  0  0  0  0  0  0  0  0  0  0  0
    1.2419    6.8690    0.0000 C   0  0  0  0  0  0  0  0  0  0  0  0
    2.7192    7.1294    0.0000 C   0  0  0  0  0  0  0  0  0  0  0  0
    3.6833    5.9803    0.0000 C   0  0  0  0  0  0  0  0  0  0  0  0
    3.1702    4.5709    0.0000 C   0  0  0  0  0  0  0  0  0  0  0  0
    4.1344    3.4218    0.0000 C   0  0  0  0  0  0  0  0  0  0  0  0
    4.2911   -7.6895    0.0000 C   0  0  0  0  0  0  0  0  0  0  0  0
    2.9921   -6.9395    0.0000 O   0  0  0  0  0  0  0  0  0  0  0  0
  1  2  1  0  0  0  0
  2  3  1  0  0  0  0
  3  4  2  0  0  0  0
  4  5  1  0  0  0  0
  5  6  2  0  0  0  0
  6  7  1  0  0  0  0
  7  8  1  0  0  0  0
  8  9  1  0  0  0  0
  9 10  1  0  0  0  0
  9 11  1  0  0  0  0
  7 12  2  0  0  0  0
  3 12  1  0  0  0  0
 12 13  1  0  0  0  0
 13 14  1  0  0  0  0
 14 15  1  0  0  0  0
 15 16  2  0  0  0  0
 16 17  1  0  0  0  0
 16 18  1  0  0  0  0
 18 19  1  0  0  0  0
 19 20  1  0  0  0  0
 20 21  2  0  0  0  0
 21 22  1  0  0  0  0
 21 23  1  0  0  0  0
 23 24  1  0  0  0  0
 25 24  1  6  0  0  0
 25 26  1  1  0  0  0
 25 27  1  0  0  0  0
 27 28  1  1  0  0  0
 27 29  1  0  0  0  0
 29 30  1  0  0  0  0
 30 31  1  0  0  0  0
 31 32  2  0  0  0  0
 25 32  1  0  0  0  0
 32 33  1  0  0  0  0
 13 34  1  0  0  0  0
 34 35  2  0  0  0  0
M  END
> <Molecule Name>
CHEMBL2337298

> <IUPAC>
N-[(2E,6E)-3,7-dimethyl-9-[(1R,6S)-1,2,6-trimethylcyclohex-2-en-1-yl]nona-2,6-dien-1-yl]-N-[4-(methylamino)-6-[(propan-2-yl)amino]pyrimidin-5-yl]formamide

> <ChEMBL_Data_Neisseria_g: Molecule_Preferred_NAME>
AXISTATIN 3

> <ChEMBL_Data_Neisseria_g: NUM_RO5_VIOLATIONS>
1

> <ChEMBL_Data_Neisseria_g: Qualifier_for_MIC_Ng>
=

> <ChEMBL_Data_Neisseria_g: ASSAY_CHEMBLID>
CHEMBL2344781

> <ChEMBL_Data_Neisseria_g: DESCRIPTION_of_Assay_Ng>
Antimicrobial activity against Neisseria gonorrhoeae ATCC 49226 by NCCLS broth microdilution assay

> <ChEMBL_Data_Neisseria_g: PUBMED_ID>
23410078

> <ChEMBL_Data_Neisseria_g: YEAR>
2013

> <ChEMBL_Data_Neisseria_g: JOURNAL>
J. Nat. Prod.

> <ChEMBL_Data_Neisseria_g: VOLUME>
76

> <ChEMBL_Data_Neisseria_g: FIRST_PAGE>
420

> <ChEMBL_Data_Neisseria_g: MIC_vs_Neisseria_microg_per_mL>
8

> <ALogP>
7.089

> <Active>
1

> <Molecular_Weight>
481.716

> <ChEMBL_Data_Neisseria_g: STRAIN_of_Ng>
ATCC 49226

$$$$

Generated by Molecular Materials Informatics

 32 33  0  0  0  0  0  0  0  0999 V2000
    9.4873   -5.1958    0.0000 C   0  0  0  0  0  0  0  0  0  0  0  0
    8.1882   -5.9458    0.0000 N   0  0  0  0  0  0  0  0  0  0  0  0
    8.1882   -7.4458    0.0000 C   0  0  0  0  0  0  0  0  0  0  0  0
    9.4873   -8.1958    0.0000 N   0  0  0  0  0  0  0  0  0  0  0  0
    9.4873   -9.6957    0.0000 C   0  0  0  0  0  0  0  0  0  0  0  0
    8.1882  -10.4457    0.0000 N   0  0  0  0  0  0  0  0  0  0  0  0
    6.8891   -9.6957    0.0000 C   0  0  0  0  0  0  0  0  0  0  0  0
    5.5902  -10.4457    0.0000 N   0  0  0  0  0  0  0  0  0  0  0  0
    6.8891   -8.1958    0.0000 C   0  0  0  0  0  0  0  0  0  0  0  0
    5.5902   -7.4458    0.0000 N   0  0  0  0  0  0  0  0  0  0  0  0
    5.5902   -5.9458    0.0000 C   0  0  0  0  0  0  0  0  0  0  0  0
    4.2911   -5.1958    0.0000 C   0  0  0  0  0  0  0  0  0  0  0  0
    4.2911   -3.6958    0.0000 C   0  0  0  0  0  0  0  0  0  0  0  0
    5.5902   -2.9458    0.0000 C   0  0  0  0  0  0  0  0  0  0  0  0
    2.9921   -2.9458    0.0000 C   0  0  0  0  0  0  0  0  0  0  0  0
    2.9921   -1.4459    0.0000 C   0  0  0  0  0  0  0  0  0  0  0  0
    1.6930   -0.6959    0.0000 C   0  0  0  0  0  0  0  0  0  0  0  0
    1.6930    0.8041    0.0000 C   0  0  0  0  0  0  0  0  0  0  0  0
    2.9921    1.5541    0.0000 C   0  0  0  0  0  0  0  0  0  0  0  0
    0.3941    1.5541    0.0000 C   0  0  0  0  0  0  0  0  0  0  0  0
    0.3941    3.0541    0.0000 C   0  0  0  0  0  0  0  0  0  0  0  0
    1.6930    3.8041    0.0000 C   0  0  0  0  0  0  0  0  0  0  0  0
    2.2061    2.3946    0.0000 C   0  0  0  0  0  0  0  0  0  0  0  0
    0.7288    4.9532    0.0000 C   0  0  0  0  0  0  0  0  0  0  0  0
   -0.7483    4.6926    0.0000 C   0  0  0  0  0  0  0  0  0  0  0  0
    1.2419    6.3628    0.0000 C   0  0  0  0  0  0  0  0  0  0  0  0
    2.7192    6.6231    0.0000 C   0  0  0  0  0  0  0  0  0  0  0  0
    3.6833    5.4741    0.0000 C   0  0  0  0  0  0  0  0  0  0  0  0
    3.1702    4.0646    0.0000 C   0  0  0  0  0  0  0  0  0  0  0  0
    4.1344    2.9155    0.0000 C   0  0  0  0  0  0  0  0  0  0  0  0
    4.2911   -8.1958    0.0000 C   0  0  0  0  0  0  0  0  0  0  0  0
    2.9921   -7.4458    0.0000 O   0  0  0  0  0  0  0  0  0  0  0  0
  1  2  1  0  0  0  0
  2  3  1  0  0  0  0
  3  4  2  0  0  0  0
  4  5  1  0  0  0  0
  5  6  2  0  0  0  0
  6  7  1  0  0  0  0
  7  8  1  0  0  0  0
  7  9  2  0  0  0  0
  3  9  1  0  0  0  0
  9 10  1  0  0  0  0
 10 11  1  0  0  0  0
 11 12  1  0  0  0  0
 12 13  2  0  0  0  0
 13 14  1  0  0  0  0
 13 15  1  0  0  0  0
 15 16  1  0  0  0  0
 16 17  1  0  0  0  0
 17 18  2  0  0  0  0
 18 19  1  0  0  0  0
 18 20  1  0  0  0  0
 20 21  1  0  0  0  0
 22 21  1  6  0  0  0
 22 23  1  1  0  0  0
 22 24  1  0  0  0  0
 24 25  1  1  0  0  0
 24 26  1  0  0  0  0
 26 27  1  0  0  0  0
 27 28  1  0  0  0  0
 28 29  2  0  0  0  0
 22 29  1  0  0  0  0
 29 30  1  0  0  0  0
 10 31  1  0  0  0  0
 31 32  2  0  0  0  0
M  END
> <Molecule Name>
CHEMBL2337297

> <IUPAC>
N-[4-amino-6-(methylamino)pyrimidin-5-yl]-N-[(2E,6E)-3,7-dimethyl-9-[(1R,6S)-1,2,6-trimethylcyclohex-2-en-1-yl]nona-2,6-dien-1-yl]formamide

> <ChEMBL_Data_Neisseria_g: NUM_RO5_VIOLATIONS>
1

> <ChEMBL_Data_Neisseria_g: Qualifier_for_MIC_Ng>
=

> <ChEMBL_Data_Neisseria_g: ASSAY_CHEMBLID>
CHEMBL2344781

> <ChEMBL_Data_Neisseria_g: DESCRIPTION_of_Assay_Ng>
Antimicrobial activity against Neisseria gonorrhoeae ATCC 49226 by NCCLS broth microdilution assay

> <ChEMBL_Data_Neisseria_g: PUBMED_ID>
23410078

> <ChEMBL_Data_Neisseria_g: YEAR>
2013

> <ChEMBL_Data_Neisseria_g: JOURNAL>
J. Nat. Prod.

> <ChEMBL_Data_Neisseria_g: VOLUME>
76

> <ChEMBL_Data_Neisseria_g: FIRST_PAGE>
420

> <ChEMBL_Data_Neisseria_g: MIC_vs_Neisseria_microg_per_mL>
16

> <ALogP>
5.808

> <Active>
0

> <Molecular_Weight>
439.637

> <ChEMBL_Data_Neisseria_g: STRAIN_of_Ng>
ATCC 49226

$$$$

Generated by Molecular Materials Informatics

 25 28  0  0  0  0  0  0  0  0999 V2000
    1.6427    0.3172    0.0000 C   0  0  0  0  0  0  0  0  0  0  0  0
    1.6427   -1.1828    0.0000 C   0  0  0  0  0  0  0  0  0  0  0  0
    2.8561   -2.0644    0.0000 N   0  0  0  0  0  0  0  0  0  0  0  0
    2.3927   -3.4910    0.0000 C   0  0  0  0  0  0  0  0  0  0  0  0
    0.8927   -3.4910    0.0000 S   0  0  0  0  0  0  0  0  0  0  0  0
    0.4290   -2.0644    0.0000 C   0  0  0  0  0  0  0  0  0  0  0  0
   -0.9975   -1.6010    0.0000 C   0  0  0  0  0  0  0  0  0  0  0  0
   -2.2109   -2.4826    0.0000 N   0  0  0  0  0  0  0  0  0  0  0  0
   -3.4246   -1.6010    0.0000 N   0  0  0  0  0  0  0  0  0  0  0  0
   -2.9609   -0.1745    0.0000 C   0  0  0  0  0  0  0  0  0  0  0  0
   -1.4609   -0.1745    0.0000 C   0  0  0  0  0  0  0  0  0  0  0  0
   -3.8427    1.0392    0.0000 C   0  0  0  0  0  0  0  0  0  0  0  0
   -5.3344    0.8823    0.0000 C   0  0  0  0  0  0  0  0  0  0  0  0
   -6.2162    2.0959    0.0000 C   0  0  0  0  0  0  0  0  0  0  0  0
   -5.6060    3.4662    0.0000 C   0  0  0  0  0  0  0  0  0  0  0  0
   -6.4876    4.6797    0.0000 F   0  0  0  0  0  0  0  0  0  0  0  0
   -4.1142    3.6230    0.0000 C   0  0  0  0  0  0  0  0  0  0  0  0
   -3.2326    2.4095    0.0000 C   0  0  0  0  0  0  0  0  0  0  0  0
   -1.7408    2.5663    0.0000 F   0  0  0  0  0  0  0  0  0  0  0  0
    3.2743   -4.7046    0.0000 C   0  0  0  0  0  0  0  0  0  0  0  0
    4.7661   -4.5477    0.0000 C   0  0  0  0  0  0  0  0  0  0  0  0
    5.6477   -5.7613    0.0000 C   0  0  0  0  0  0  0  0  0  0  0  0
    5.0375   -7.1317    0.0000 C   0  0  0  0  0  0  0  0  0  0  0  0
    3.5459   -7.2884    0.0000 N   0  0  0  0  0  0  0  0  0  0  0  0
    2.6641   -6.0749    0.0000 C   0  0  0  0  0  0  0  0  0  0  0  0
  1  2  1  0  0  0  0
  2  3  1  0  0  0  0
  3  4  2  0  0  0  0
  4  5  1  0  0  0  0
  5  6  1  0  0  0  0
  2  6  2  0  0  0  0
  6  7  1  0  0  0  0
  7  8  2  0  0  0  0
  8  9  1  0  0  0  0
  9 10  1  0  0  0  0
 10 11  1  0  0  0  0
  7 11  1  0  0  0  0
 10 12  1  0  0  0  0
 12 13  2  0  0  0  0
 13 14  1  0  0  0  0
 14 15  2  0  0  0  0
 15 16  1  0  0  0  0
 15 17  1  0  0  0  0
 17 18  2  0  0  0  0
 12 18  1  0  0  0  0
 18 19  1  0  0  0  0
  4 20  1  0  0  0  0
 20 21  2  0  0  0  0
 21 22  1  0  0  0  0
 22 23  2  0  0  0  0
 23 24  1  0  0  0  0
 24 25  2  0  0  0  0
 20 25  1  0  0  0  0
M  END
> <Molecule Name>
CHEMBL2337216

> <IUPAC>
3-{5-[5-(2,4-difluorophenyl)-4,5-dihydro-1H-pyrazol-3-yl]-4-methyl-1,3-thiazol-2-yl}pyridine

> <Collections>
TrainingSet_Kleb_p_ALPerryman_JSF

> <ChEMBL_Data_Neisseria_g: NUM_RO5_VIOLATIONS>
0

> <ChEMBL_Data_Neisseria_g: Qualifier_for_MIC_Ng>
>

> <ChEMBL_Data_Neisseria_g: ASSAY_CHEMBLID>
CHEMBL2343213

> <ChEMBL_Data_Neisseria_g: DESCRIPTION_of_Assay_Ng>
Antibacterial activity against Neisseria gonorrhoeae RCMB 010076 assessed as growth inhibition after 24 hrs by twofold serial dilution method

> <ChEMBL_Data_Neisseria_g: PUBMED_ID>
23357308

> <ChEMBL_Data_Neisseria_g: YEAR>
2013

> <ChEMBL_Data_Neisseria_g: JOURNAL>
Eur. J. Med. Chem.

> <ChEMBL_Data_Neisseria_g: VOLUME>
62

> <ChEMBL_Data_Neisseria_g: FIRST_PAGE>
270

> <ChEMBL_Data_Neisseria_g: MIC_vs_Neisseria_microg_per_mL>
500

> <ALogP>
3.099

> <Active>
0

> <Molecular_Weight>
356.392

> <ChEMBL_Data_Neisseria_g: STRAIN_of_Ng>
RCMB 010076

$$$$

Generated by Molecular Materials Informatics

 24 27  0  0  0  0  0  0  0  0999 V2000
    1.6427    0.3172    0.0000 C   0  0  0  0  0  0  0  0  0  0  0  0
    1.6427   -1.1828    0.0000 C   0  0  0  0  0  0  0  0  0  0  0  0
    2.8561   -2.0644    0.0000 N   0  0  0  0  0  0  0  0  0  0  0  0
    2.3927   -3.4910    0.0000 C   0  0  0  0  0  0  0  0  0  0  0  0
    0.8927   -3.4910    0.0000 S   0  0  0  0  0  0  0  0  0  0  0  0
    0.4291   -2.0644    0.0000 C   0  0  0  0  0  0  0  0  0  0  0  0
   -0.9975   -1.6010    0.0000 C   0  0  0  0  0  0  0  0  0  0  0  0
   -2.2109   -2.4826    0.0000 N   0  0  0  0  0  0  0  0  0  0  0  0
   -3.4246   -1.6010    0.0000 N   0  0  0  0  0  0  0  0  0  0  0  0
   -2.9610   -0.1744    0.0000 C   0  0  0  0  0  0  0  0  0  0  0  0
   -1.4610   -0.1744    0.0000 C   0  0  0  0  0  0  0  0  0  0  0  0
   -3.8428    1.0392    0.0000 C   0  0  0  0  0  0  0  0  0  0  0  0
   -5.3344    0.8823    0.0000 C   0  0  0  0  0  0  0  0  0  0  0  0
   -6.2162    2.0959    0.0000 C   0  0  0  0  0  0  0  0  0  0  0  0
   -5.6060    3.4663    0.0000 C   0  0  0  0  0  0  0  0  0  0  0  0
   -6.4877    4.6797    0.0000 Cl  0  0  0  0  0  0  0  0  0  0  0  0
   -4.1142    3.6230    0.0000 C   0  0  0  0  0  0  0  0  0  0  0  0
   -3.2326    2.4096    0.0000 C   0  0  0  0  0  0  0  0  0  0  0  0
    3.2743   -4.7046    0.0000 C   0  0  0  0  0  0  0  0  0  0  0  0
    4.7661   -4.5477    0.0000 C   0  0  0  0  0  0  0  0  0  0  0  0
    5.6478   -5.7614    0.0000 C   0  0  0  0  0  0  0  0  0  0  0  0
    5.0376   -7.1317    0.0000 C   0  0  0  0  0  0  0  0  0  0  0  0
    3.5460   -7.2884    0.0000 N   0  0  0  0  0  0  0  0  0  0  0  0
    2.6641   -6.0750    0.0000 C   0  0  0  0  0  0  0  0  0  0  0  0
  1  2  1  0  0  0  0
  2  3  1  0  0  0  0
  3  4  2  0  0  0  0
  4  5  1  0  0  0  0
  5  6  1  0  0  0  0
  2  6  2  0  0  0  0
  6  7  1  0  0  0  0
  7  8  2  0  0  0  0
  8  9  1  0  0  0  0
  9 10  1  0  0  0  0
 10 11  1  0  0  0  0
  7 11  1  0  0  0  0
 10 12  1  0  0  0  0
 12 13  2  0  0  0  0
 13 14  1  0  0  0  0
 14 15  2  0  0  0  0
 15 16  1  0  0  0  0
 15 17  1  0  0  0  0
 17 18  2  0  0  0  0
 12 18  1  0  0  0  0
  4 19  1  0  0  0  0
 19 20  2  0  0  0  0
 20 21  1  0  0  0  0
 21 22  2  0  0  0  0
 22 23  1  0  0  0  0
 23 24  2  0  0  0  0
 19 24  1  0  0  0  0
M  END
> <Molecule Name>
CHEMBL2337215

> <IUPAC>
3-{5-[5-(4-chlorophenyl)-4,5-dihydro-1H-pyrazol-3-yl]-4-methyl-1,3-thiazol-2-yl}pyridine

> <Collections>
TrainingSet_Kleb_p_ALPerryman_JSF

> <ChEMBL_Data_Neisseria_g: NUM_RO5_VIOLATIONS>
0

> <ChEMBL_Data_Neisseria_g: Qualifier_for_MIC_Ng>
>

> <ChEMBL_Data_Neisseria_g: ASSAY_CHEMBLID>
CHEMBL2343213

> <ChEMBL_Data_Neisseria_g: DESCRIPTION_of_Assay_Ng>
Antibacterial activity against Neisseria gonorrhoeae RCMB 010076 assessed as growth inhibition after 24 hrs by twofold serial dilution method

> <ChEMBL_Data_Neisseria_g: PUBMED_ID>
23357308

> <ChEMBL_Data_Neisseria_g: YEAR>
2013

> <ChEMBL_Data_Neisseria_g: JOURNAL>
Eur. J. Med. Chem.

> <ChEMBL_Data_Neisseria_g: VOLUME>
62

> <ChEMBL_Data_Neisseria_g: FIRST_PAGE>
270

> <ChEMBL_Data_Neisseria_g: MIC_vs_Neisseria_microg_per_mL>
500

> <ALogP>
3.353

> <Active>
0

> <Molecular_Weight>
354.856

> <ChEMBL_Data_Neisseria_g: STRAIN_of_Ng>
RCMB 010076

$$$$

Generated by Molecular Materials Informatics

 25 28  0  0  0  0  0  0  0  0999 V2000
   -3.3741    3.8428    0.0000 C   0  0  0  0  0  0  0  0  0  0  0  0
   -2.0751    3.0928    0.0000 O   0  0  0  0  0  0  0  0  0  0  0  0
   -2.0751    1.5928    0.0000 C   0  0  0  0  0  0  0  0  0  0  0  0
   -0.7761    0.8428    0.0000 C   0  0  0  0  0  0  0  0  0  0  0  0
   -0.7761   -0.6572    0.0000 C   0  0  0  0  0  0  0  0  0  0  0  0
   -2.0751   -1.4072    0.0000 C   0  0  0  0  0  0  0  0  0  0  0  0
   -3.3741   -0.6572    0.0000 C   0  0  0  0  0  0  0  0  0  0  0  0
   -3.3741    0.8428    0.0000 C   0  0  0  0  0  0  0  0  0  0  0  0
   -2.0751   -2.9072    0.0000 C   0  0  0  0  0  0  0  0  0  0  0  0
   -0.8615   -3.7888    0.0000 C   0  0  0  0  0  0  0  0  0  0  0  0
   -1.3251   -5.2154    0.0000 C   0  0  0  0  0  0  0  0  0  0  0  0
   -2.8251   -5.2154    0.0000 N   0  0  0  0  0  0  0  0  0  0  0  0
   -3.2886   -3.7888    0.0000 N   0  0  0  0  0  0  0  0  0  0  0  0
   -0.4433   -6.4288    0.0000 C   0  0  0  0  0  0  0  0  0  0  0  0
    1.0567   -6.4288    0.0000 S   0  0  0  0  0  0  0  0  0  0  0  0
    1.5201   -7.8555    0.0000 C   0  0  0  0  0  0  0  0  0  0  0  0
    0.3067   -8.7372    0.0000 N   0  0  0  0  0  0  0  0  0  0  0  0
   -0.9070   -7.8555    0.0000 C   0  0  0  0  0  0  0  0  0  0  0  0
   -2.3335   -8.3190    0.0000 C   0  0  0  0  0  0  0  0  0  0  0  0
    2.9467   -8.3190    0.0000 C   0  0  0  0  0  0  0  0  0  0  0  0
    4.0614   -7.3154    0.0000 C   0  0  0  0  0  0  0  0  0  0  0  0
    5.4880   -7.7788    0.0000 C   0  0  0  0  0  0  0  0  0  0  0  0
    5.8000   -9.2461    0.0000 C   0  0  0  0  0  0  0  0  0  0  0  0
    4.6852  -10.2497    0.0000 N   0  0  0  0  0  0  0  0  0  0  0  0
    3.2587   -9.7863    0.0000 C   0  0  0  0  0  0  0  0  0  0  0  0
  1  2  1  0  0  0  0
  2  3  1  0  0  0  0
  3  4  2  0  0  0  0
  4  5  1  0  0  0  0
  5  6  2  0  0  0  0
  6  7  1  0  0  0  0
  7  8  2  0  0  0  0
  3  8  1  0  0  0  0
  6  9  1  0  0  0  0
  9 10  1  0  0  0  0
 10 11  1  0  0  0  0
 11 12  2  0  0  0  0
 12 13  1  0  0  0  0
  9 13  1  0  0  0  0
 11 14  1  0  0  0  0
 14 15  1  0  0  0  0
 15 16  1  0  0  0  0
 16 17  2  0  0  0  0
 17 18  1  0  0  0  0
 14 18  2  0  0  0  0
 18 19  1  0  0  0  0
 16 20  1  0  0  0  0
 20 21  2  0  0  0  0
 21 22  1  0  0  0  0
 22 23  2  0  0  0  0
 23 24  1  0  0  0  0
 24 25  2  0  0  0  0
 20 25  1  0  0  0  0
M  END
> <Molecule Name>
CHEMBL2337214

> <IUPAC>
3-{5-[5-(4-methoxyphenyl)-4,5-dihydro-1H-pyrazol-3-yl]-4-methyl-1,3-thiazol-2-yl}pyridine

> <Collections>
TrainingSet_Kleb_p_ALPerryman_JSF

> <ChEMBL_Data_Neisseria_g: NUM_RO5_VIOLATIONS>
0

> <ChEMBL_Data_Neisseria_g: Qualifier_for_MIC_Ng>
=

> <ChEMBL_Data_Neisseria_g: ASSAY_CHEMBLID>
CHEMBL2343213

> <ChEMBL_Data_Neisseria_g: DESCRIPTION_of_Assay_Ng>
Antibacterial activity against Neisseria gonorrhoeae RCMB 010076 assessed as growth inhibition after 24 hrs by twofold serial dilution method

> <ChEMBL_Data_Neisseria_g: PUBMED_ID>
23357308

> <ChEMBL_Data_Neisseria_g: YEAR>
2013

> <ChEMBL_Data_Neisseria_g: JOURNAL>
Eur. J. Med. Chem.

> <ChEMBL_Data_Neisseria_g: VOLUME>
62

> <ChEMBL_Data_Neisseria_g: FIRST_PAGE>
270

> <ChEMBL_Data_Neisseria_g: MIC_vs_Neisseria_microg_per_mL>
500

> <ALogP>
2.672

> <Active>
0

> <Molecular_Weight>
350.437

> <ChEMBL_Data_Neisseria_g: STRAIN_of_Ng>
RCMB 010076

$$$$

Generated by Molecular Materials Informatics

 23 26  0  0  0  0  0  0  0  0999 V2000
    1.5816    0.5549    0.0000 C   0  0  0  0  0  0  0  0  0  0  0  0
    1.5816   -0.9450    0.0000 C   0  0  0  0  0  0  0  0  0  0  0  0
    2.7950   -1.8267    0.0000 N   0  0  0  0  0  0  0  0  0  0  0  0
    2.3316   -3.2532    0.0000 C   0  0  0  0  0  0  0  0  0  0  0  0
    0.8316   -3.2532    0.0000 S   0  0  0  0  0  0  0  0  0  0  0  0
    0.3680   -1.8267    0.0000 C   0  0  0  0  0  0  0  0  0  0  0  0
   -1.0586   -1.3632    0.0000 C   0  0  0  0  0  0  0  0  0  0  0  0
   -2.2720   -2.2449    0.0000 N   0  0  0  0  0  0  0  0  0  0  0  0
   -3.4856   -1.3632    0.0000 N   0  0  0  0  0  0  0  0  0  0  0  0
   -3.0220    0.0633    0.0000 C   0  0  0  0  0  0  0  0  0  0  0  0
   -1.5220    0.0633    0.0000 C   0  0  0  0  0  0  0  0  0  0  0  0
   -3.9038    1.2769    0.0000 C   0  0  0  0  0  0  0  0  0  0  0  0
   -5.3954    1.1200    0.0000 C   0  0  0  0  0  0  0  0  0  0  0  0
   -6.2773    2.3337    0.0000 C   0  0  0  0  0  0  0  0  0  0  0  0
   -5.6671    3.7040    0.0000 C   0  0  0  0  0  0  0  0  0  0  0  0
   -4.1753    3.8607    0.0000 C   0  0  0  0  0  0  0  0  0  0  0  0
   -3.2936    2.6473    0.0000 C   0  0  0  0  0  0  0  0  0  0  0  0
    3.2132   -4.4668    0.0000 C   0  0  0  0  0  0  0  0  0  0  0  0
    4.7050   -4.3099    0.0000 C   0  0  0  0  0  0  0  0  0  0  0  0
    5.5866   -5.5236    0.0000 C   0  0  0  0  0  0  0  0  0  0  0  0
    4.9765   -6.8939    0.0000 C   0  0  0  0  0  0  0  0  0  0  0  0
    3.4848   -7.0506    0.0000 N   0  0  0  0  0  0  0  0  0  0  0  0
    2.6030   -5.8372    0.0000 C   0  0  0  0  0  0  0  0  0  0  0  0
  1  2  1  0  0  0  0
  2  3  1  0  0  0  0
  3  4  2  0  0  0  0
  4  5  1  0  0  0  0
  5  6  1  0  0  0  0
  2  6  2  0  0  0  0
  6  7  1  0  0  0  0
  7  8  2  0  0  0  0
  8  9  1  0  0  0  0
  9 10  1  0  0  0  0
 10 11  1  0  0  0  0
  7 11  1  0  0  0  0
 10 12  1  0  0  0  0
 12 13  2  0  0  0  0
 13 14  1  0  0  0  0
 14 15  2  0  0  0  0
 15 16  1  0  0  0  0
 16 17  2  0  0  0  0
 12 17  1  0  0  0  0
  4 18  1  0  0  0  0
 18 19  2  0  0  0  0
 19 20  1  0  0  0  0
 20 21  2  0  0  0  0
 21 22  1  0  0  0  0
 22 23  2  0  0  0  0
 18 23  1  0  0  0  0
M  END
> <Molecule Name>
CHEMBL2337213

> <IUPAC>
3-[4-methyl-5-(5-phenyl-4,5-dihydro-1H-pyrazol-3-yl)-1,3-thiazol-2-yl]pyridine

> <Collections>
TrainingSet_Kleb_p_ALPerryman_JSF

> <ChEMBL_Data_Neisseria_g: NUM_RO5_VIOLATIONS>
0

> <ChEMBL_Data_Neisseria_g: Qualifier_for_MIC_Ng>
>

> <ChEMBL_Data_Neisseria_g: ASSAY_CHEMBLID>
CHEMBL2343213

> <ChEMBL_Data_Neisseria_g: DESCRIPTION_of_Assay_Ng>
Antibacterial activity against Neisseria gonorrhoeae RCMB 010076 assessed as growth inhibition after 24 hrs by twofold serial dilution method

> <ChEMBL_Data_Neisseria_g: PUBMED_ID>
23357308

> <ChEMBL_Data_Neisseria_g: YEAR>
2013

> <ChEMBL_Data_Neisseria_g: JOURNAL>
Eur. J. Med. Chem.

> <ChEMBL_Data_Neisseria_g: VOLUME>
62

> <ChEMBL_Data_Neisseria_g: FIRST_PAGE>
270

> <ChEMBL_Data_Neisseria_g: MIC_vs_Neisseria_microg_per_mL>
500

> <ALogP>
2.688

> <Active>
0

> <Molecular_Weight>
320.411

> <ChEMBL_Data_Neisseria_g: STRAIN_of_Ng>
RCMB 010076

$$$$

Generated by Molecular Materials Informatics

 24 26  0  0  0  0  0  0  0  0999 V2000
    1.2598   -0.0246    0.0000 C   0  0  0  0  0  0  0  0  0  0  0  0
    1.2598   -1.5246    0.0000 C   0  0  0  0  0  0  0  0  0  0  0  0
    2.4733   -2.4062    0.0000 N   0  0  0  0  0  0  0  0  0  0  0  0
    2.0098   -3.8327    0.0000 C   0  0  0  0  0  0  0  0  0  0  0  0
    0.5099   -3.8327    0.0000 S   0  0  0  0  0  0  0  0  0  0  0  0
    0.0462   -2.4062    0.0000 C   0  0  0  0  0  0  0  0  0  0  0  0
   -1.3803   -1.9427    0.0000 C   0  0  0  0  0  0  0  0  0  0  0  0
   -2.4950   -2.9464    0.0000 O   0  0  0  0  0  0  0  0  0  0  0  0
   -1.6921   -0.4755    0.0000 C   0  0  0  0  0  0  0  0  0  0  0  0
   -3.1187   -0.0120    0.0000 C   0  0  0  0  0  0  0  0  0  0  0  0
   -3.4307    1.4552    0.0000 C   0  0  0  0  0  0  0  0  0  0  0  0
   -4.8572    1.9187    0.0000 C   0  0  0  0  0  0  0  0  0  0  0  0
   -5.1690    3.3860    0.0000 C   0  0  0  0  0  0  0  0  0  0  0  0
   -4.0543    4.3896    0.0000 C   0  0  0  0  0  0  0  0  0  0  0  0
   -4.3661    5.8568    0.0000 F   0  0  0  0  0  0  0  0  0  0  0  0
   -2.6278    3.9261    0.0000 C   0  0  0  0  0  0  0  0  0  0  0  0
   -2.3159    2.4589    0.0000 C   0  0  0  0  0  0  0  0  0  0  0  0
   -0.8892    1.9954    0.0000 F   0  0  0  0  0  0  0  0  0  0  0  0
    2.8915   -5.0463    0.0000 C   0  0  0  0  0  0  0  0  0  0  0  0
    4.3833   -4.8894    0.0000 C   0  0  0  0  0  0  0  0  0  0  0  0
    5.2649   -6.1031    0.0000 C   0  0  0  0  0  0  0  0  0  0  0  0
    4.6547   -7.4734    0.0000 C   0  0  0  0  0  0  0  0  0  0  0  0
    3.1631   -7.6301    0.0000 N   0  0  0  0  0  0  0  0  0  0  0  0
    2.2813   -6.4167    0.0000 C   0  0  0  0  0  0  0  0  0  0  0  0
  1  2  1  0  0  0  0
  2  3  1  0  0  0  0
  3  4  2  0  0  0  0
  4  5  1  0  0  0  0
  5  6  1  0  0  0  0
  2  6  2  0  0  0  0
  6  7  1  0  0  0  0
  7  8  2  0  0  0  0
  7  9  1  0  0  0  0
  9 10  2  0  0  0  0
 10 11  1  0  0  0  0
 11 12  2  0  0  0  0
 12 13  1  0  0  0  0
 13 14  2  0  0  0  0
 14 15  1  0  0  0  0
 14 16  1  0  0  0  0
 16 17  2  0  0  0  0
 11 17  1  0  0  0  0
 17 18  1  0  0  0  0
  4 19  1  0  0  0  0
 19 20  2  0  0  0  0
 20 21  1  0  0  0  0
 21 22  2  0  0  0  0
 22 23  1  0  0  0  0
 23 24  2  0  0  0  0
 19 24  1  0  0  0  0
M  END
> <Molecule Name>
CHEMBL2337212

> <IUPAC>
(2E)-3-(2,4-difluorophenyl)-1-[4-methyl-2-(pyridin-3-yl)-1,3-thiazol-5-yl]prop-2-en-1-one

> <Collections>
TrainingSet_Kleb_p_ALPerryman_JSF

> <ChEMBL_Data_Neisseria_g: NUM_RO5_VIOLATIONS>
0

> <ChEMBL_Data_Neisseria_g: Qualifier_for_MIC_Ng>
>

> <ChEMBL_Data_Neisseria_g: ASSAY_CHEMBLID>
CHEMBL2343213

> <ChEMBL_Data_Neisseria_g: DESCRIPTION_of_Assay_Ng>
Antibacterial activity against Neisseria gonorrhoeae RCMB 010076 assessed as growth inhibition after 24 hrs by twofold serial dilution method

> <ChEMBL_Data_Neisseria_g: PUBMED_ID>
23357308

> <ChEMBL_Data_Neisseria_g: YEAR>
2013

> <ChEMBL_Data_Neisseria_g: JOURNAL>
Eur. J. Med. Chem.

> <ChEMBL_Data_Neisseria_g: VOLUME>
62

> <ChEMBL_Data_Neisseria_g: FIRST_PAGE>
270

> <ChEMBL_Data_Neisseria_g: MIC_vs_Neisseria_microg_per_mL>
500

> <ALogP>
3.917

> <Active>
0

> <Molecular_Weight>
342.362

> <ChEMBL_Data_Neisseria_g: STRAIN_of_Ng>
RCMB 010076

$$$$

Generated by Molecular Materials Informatics

 25 27  0  0  0  0  0  0  0  0999 V2000
    1.2599    0.3056    0.0000 C   0  0  0  0  0  0  0  0  0  0  0  0
    1.2599   -1.1944    0.0000 C   0  0  0  0  0  0  0  0  0  0  0  0
    2.4733   -2.0761    0.0000 N   0  0  0  0  0  0  0  0  0  0  0  0
    2.0099   -3.5026    0.0000 C   0  0  0  0  0  0  0  0  0  0  0  0
    0.5099   -3.5026    0.0000 S   0  0  0  0  0  0  0  0  0  0  0  0
    0.0462   -2.0761    0.0000 C   0  0  0  0  0  0  0  0  0  0  0  0
   -1.3803   -1.6126    0.0000 C   0  0  0  0  0  0  0  0  0  0  0  0
   -2.4951   -2.6162    0.0000 O   0  0  0  0  0  0  0  0  0  0  0  0
   -1.6921   -0.1453    0.0000 C   0  0  0  0  0  0  0  0  0  0  0  0
   -3.1187    0.3181    0.0000 C   0  0  0  0  0  0  0  0  0  0  0  0
   -3.4307    1.7854    0.0000 C   0  0  0  0  0  0  0  0  0  0  0  0
   -4.8572    2.2488    0.0000 C   0  0  0  0  0  0  0  0  0  0  0  0
   -5.1691    3.7161    0.0000 C   0  0  0  0  0  0  0  0  0  0  0  0
   -4.0543    4.7198    0.0000 C   0  0  0  0  0  0  0  0  0  0  0  0
   -2.6278    4.2563    0.0000 C   0  0  0  0  0  0  0  0  0  0  0  0
   -2.3160    2.7890    0.0000 C   0  0  0  0  0  0  0  0  0  0  0  0
   -0.8892    2.3256    0.0000 N   0  3  0  0  0  0  0  0  0  0  0  0
   -0.5774    0.8583    0.0000 O   0  0  0  0  0  0  0  0  0  0  0  0
    0.2253    3.3292    0.0000 O   0  5  0  0  0  0  0  0  0  0  0  0
    2.8915   -4.7162    0.0000 C   0  0  0  0  0  0  0  0  0  0  0  0
    4.3833   -4.5593    0.0000 C   0  0  0  0  0  0  0  0  0  0  0  0
    5.2649   -5.7730    0.0000 C   0  0  0  0  0  0  0  0  0  0  0  0
    4.6548   -7.1433    0.0000 C   0  0  0  0  0  0  0  0  0  0  0  0
    3.1631   -7.3001    0.0000 N   0  0  0  0  0  0  0  0  0  0  0  0
    2.2813   -6.0866    0.0000 C   0  0  0  0  0  0  0  0  0  0  0  0
  1  2  1  0  0  0  0
  2  3  1  0  0  0  0
  3  4  2  0  0  0  0
  4  5  1  0  0  0  0
  5  6  1  0  0  0  0
  2  6  2  0  0  0  0
  6  7  1  0  0  0  0
  7  8  2  0  0  0  0
  7  9  1  0  0  0  0
  9 10  2  0  0  0  0
 10 11  1  0  0  0  0
 11 12  2  0  0  0  0
 12 13  1  0  0  0  0
 13 14  2  0  0  0  0
 14 15  1  0  0  0  0
 15 16  2  0  0  0  0
 11 16  1  0  0  0  0
 16 17  1  0  0  0  0
 17 18  2  0  0  0  0
 17 19  1  0  0  0  0
  4 20  1  0  0  0  0
 20 21  2  0  0  0  0
 21 22  1  0  0  0  0
 22 23  2  0  0  0  0
 23 24  1  0  0  0  0
 24 25  2  0  0  0  0
 20 25  1  0  0  0  0
M  CHG  2  17   1  19  -1
M  END
> <Molecule Name>
CHEMBL2337211

> <IUPAC>
(2E)-1-[4-methyl-2-(pyridin-3-yl)-1,3-thiazol-5-yl]-3-(2-nitrophenyl)prop-2-en-1-one

> <Collections>
TrainingSet_Kleb_p_ALPerryman_JSF

> <ChEMBL_Data_Neisseria_g: NUM_RO5_VIOLATIONS>
0

> <ChEMBL_Data_Neisseria_g: Qualifier_for_MIC_Ng>
=

> <ChEMBL_Data_Neisseria_g: ASSAY_CHEMBLID>
CHEMBL2343213

> <ChEMBL_Data_Neisseria_g: DESCRIPTION_of_Assay_Ng>
Antibacterial activity against Neisseria gonorrhoeae RCMB 010076 assessed as growth inhibition after 24 hrs by twofold serial dilution method

> <ChEMBL_Data_Neisseria_g: PUBMED_ID>
23357308

> <ChEMBL_Data_Neisseria_g: YEAR>
2013

> <ChEMBL_Data_Neisseria_g: JOURNAL>
Eur. J. Med. Chem.

> <ChEMBL_Data_Neisseria_g: VOLUME>
62

> <ChEMBL_Data_Neisseria_g: FIRST_PAGE>
270

> <ChEMBL_Data_Neisseria_g: MIC_vs_Neisseria_microg_per_mL>
125

> <ALogP>
3.4

> <Active>
0

> <Molecular_Weight>
351.379

> <ChEMBL_Data_Neisseria_g: STRAIN_of_Ng>
RCMB 010076

$$$$

Generated by Molecular Materials Informatics

 23 25  0  0  0  0  0  0  0  0999 V2000
    1.2599   -0.0246    0.0000 C   0  0  0  0  0  0  0  0  0  0  0  0
    1.2599   -1.5246    0.0000 C   0  0  0  0  0  0  0  0  0  0  0  0
    2.4733   -2.4062    0.0000 N   0  0  0  0  0  0  0  0  0  0  0  0
    2.0099   -3.8327    0.0000 C   0  0  0  0  0  0  0  0  0  0  0  0
    0.5099   -3.8327    0.0000 S   0  0  0  0  0  0  0  0  0  0  0  0
    0.0462   -2.4062    0.0000 C   0  0  0  0  0  0  0  0  0  0  0  0
   -1.3803   -1.9427    0.0000 C   0  0  0  0  0  0  0  0  0  0  0  0
   -2.4951   -2.9464    0.0000 O   0  0  0  0  0  0  0  0  0  0  0  0
   -1.6921   -0.4755    0.0000 C   0  0  0  0  0  0  0  0  0  0  0  0
   -3.1187   -0.0120    0.0000 C   0  0  0  0  0  0  0  0  0  0  0  0
   -3.4307    1.4553    0.0000 C   0  0  0  0  0  0  0  0  0  0  0  0
   -4.8572    1.9187    0.0000 C   0  0  0  0  0  0  0  0  0  0  0  0
   -5.1691    3.3860    0.0000 C   0  0  0  0  0  0  0  0  0  0  0  0
   -4.0543    4.3896    0.0000 C   0  0  0  0  0  0  0  0  0  0  0  0
   -4.3661    5.8569    0.0000 Cl  0  0  0  0  0  0  0  0  0  0  0  0
   -2.6278    3.9262    0.0000 C   0  0  0  0  0  0  0  0  0  0  0  0
   -2.3160    2.4589    0.0000 C   0  0  0  0  0  0  0  0  0  0  0  0
    2.8915   -5.0464    0.0000 C   0  0  0  0  0  0  0  0  0  0  0  0
    4.3833   -4.8895    0.0000 C   0  0  0  0  0  0  0  0  0  0  0  0
    5.2649   -6.1031    0.0000 C   0  0  0  0  0  0  0  0  0  0  0  0
    4.6548   -7.4735    0.0000 C   0  0  0  0  0  0  0  0  0  0  0  0
    3.1631   -7.6302    0.0000 N   0  0  0  0  0  0  0  0  0  0  0  0
    2.2813   -6.4167    0.0000 C   0  0  0  0  0  0  0  0  0  0  0  0
  1  2  1  0  0  0  0
  2  3  1  0  0  0  0
  3  4  2  0  0  0  0
  4  5  1  0  0  0  0
  5  6  1  0  0  0  0
  2  6  2  0  0  0  0
  6  7  1  0  0  0  0
  7  8  2  0  0  0  0
  7  9  1  0  0  0  0
  9 10  2  0  0  0  0
 10 11  1  0  0  0  0
 11 12  2  0  0  0  0
 12 13  1  0  0  0  0
 13 14  2  0  0  0  0
 14 15  1  0  0  0  0
 14 16  1  0  0  0  0
 16 17  2  0  0  0  0
 11 17  1  0  0  0  0
  4 18  1  0  0  0  0
 18 19  2  0  0  0  0
 19 20  1  0  0  0  0
 20 21  2  0  0  0  0
 21 22  1  0  0  0  0
 22 23  2  0  0  0  0
 18 23  1  0  0  0  0
M  END
> <Molecule Name>
CHEMBL2337210

> <IUPAC>
(2E)-3-(4-chlorophenyl)-1-[4-methyl-2-(pyridin-3-yl)-1,3-thiazol-5-yl]prop-2-en-1-one

> <Collections>
TrainingSet_Kleb_p_ALPerryman_JSF

> <ChEMBL_Data_Neisseria_g: NUM_RO5_VIOLATIONS>
0

> <ChEMBL_Data_Neisseria_g: Qualifier_for_MIC_Ng>
>

> <ChEMBL_Data_Neisseria_g: ASSAY_CHEMBLID>
CHEMBL2343213

> <ChEMBL_Data_Neisseria_g: DESCRIPTION_of_Assay_Ng>
Antibacterial activity against Neisseria gonorrhoeae RCMB 010076 assessed as growth inhibition after 24 hrs by twofold serial dilution method

> <ChEMBL_Data_Neisseria_g: PUBMED_ID>
23357308

> <ChEMBL_Data_Neisseria_g: YEAR>
2013

> <ChEMBL_Data_Neisseria_g: JOURNAL>
Eur. J. Med. Chem.

> <ChEMBL_Data_Neisseria_g: VOLUME>
62

> <ChEMBL_Data_Neisseria_g: FIRST_PAGE>
270

> <ChEMBL_Data_Neisseria_g: MIC_vs_Neisseria_microg_per_mL>
500

> <ALogP>
4.17

> <Active>
0

> <Molecular_Weight>
340.827

> <ChEMBL_Data_Neisseria_g: STRAIN_of_Ng>
RCMB 010076

$$$$

Generated by Molecular Materials Informatics

 22 24  0  0  0  0  0  0  0  0999 V2000
    1.2599    0.3056    0.0000 C   0  0  0  0  0  0  0  0  0  0  0  0
    1.2599   -1.1944    0.0000 C   0  0  0  0  0  0  0  0  0  0  0  0
    2.4733   -2.0761    0.0000 N   0  0  0  0  0  0  0  0  0  0  0  0
    2.0099   -3.5026    0.0000 C   0  0  0  0  0  0  0  0  0  0  0  0
    0.5099   -3.5026    0.0000 S   0  0  0  0  0  0  0  0  0  0  0  0
    0.0462   -2.0761    0.0000 C   0  0  0  0  0  0  0  0  0  0  0  0
   -1.3803   -1.6126    0.0000 C   0  0  0  0  0  0  0  0  0  0  0  0
   -2.4951   -2.6162    0.0000 O   0  0  0  0  0  0  0  0  0  0  0  0
   -1.6921   -0.1453    0.0000 C   0  0  0  0  0  0  0  0  0  0  0  0
   -3.1187    0.3181    0.0000 C   0  0  0  0  0  0  0  0  0  0  0  0
   -3.4307    1.7854    0.0000 C   0  0  0  0  0  0  0  0  0  0  0  0
   -4.8572    2.2489    0.0000 C   0  0  0  0  0  0  0  0  0  0  0  0
   -5.1691    3.7161    0.0000 C   0  0  0  0  0  0  0  0  0  0  0  0
   -4.0543    4.7198    0.0000 C   0  0  0  0  0  0  0  0  0  0  0  0
   -2.6278    4.2563    0.0000 C   0  0  0  0  0  0  0  0  0  0  0  0
   -2.3160    2.7890    0.0000 C   0  0  0  0  0  0  0  0  0  0  0  0
    2.8915   -4.7162    0.0000 C   0  0  0  0  0  0  0  0  0  0  0  0
    4.3833   -4.5593    0.0000 C   0  0  0  0  0  0  0  0  0  0  0  0
    5.2650   -5.7730    0.0000 C   0  0  0  0  0  0  0  0  0  0  0  0
    4.6548   -7.1433    0.0000 C   0  0  0  0  0  0  0  0  0  0  0  0
    3.1631   -7.3001    0.0000 N   0  0  0  0  0  0  0  0  0  0  0  0
    2.2813   -6.0866    0.0000 C   0  0  0  0  0  0  0  0  0  0  0  0
  1  2  1  0  0  0  0
  2  3  1  0  0  0  0
  3  4  2  0  0  0  0
  4  5  1  0  0  0  0
  5  6  1  0  0  0  0
  2  6  2  0  0  0  0
  6  7  1  0  0  0  0
  7  8  2  0  0  0  0
  7  9  1  0  0  0  0
  9 10  2  0  0  0  0
 10 11  1  0  0  0  0
 11 12  2  0  0  0  0
 12 13  1  0  0  0  0
 13 14  2  0  0  0  0
 14 15  1  0  0  0  0
 15 16  2  0  0  0  0
 11 16  1  0  0  0  0
  4 17  1  0  0  0  0
 17 18  2  0  0  0  0
 18 19  1  0  0  0  0
 19 20  2  0  0  0  0
 20 21  1  0  0  0  0
 21 22  2  0  0  0  0
 17 22  1  0  0  0  0
M  END
> <Molecule Name>
CHEMBL2337209

> <IUPAC>
(2E)-1-[4-methyl-2-(pyridin-3-yl)-1,3-thiazol-5-yl]-3-phenylprop-2-en-1-one

> <Collections>
TrainingSet_Kleb_p_ALPerryman_JSF

> <ChEMBL_Data_Neisseria_g: NUM_RO5_VIOLATIONS>
0

> <ChEMBL_Data_Neisseria_g: Qualifier_for_MIC_Ng>
>

> <ChEMBL_Data_Neisseria_g: ASSAY_CHEMBLID>
CHEMBL2343213

> <ChEMBL_Data_Neisseria_g: DESCRIPTION_of_Assay_Ng>
Antibacterial activity against Neisseria gonorrhoeae RCMB 010076 assessed as growth inhibition after 24 hrs by twofold serial dilution method

> <ChEMBL_Data_Neisseria_g: PUBMED_ID>
23357308

> <ChEMBL_Data_Neisseria_g: YEAR>
2013

> <ChEMBL_Data_Neisseria_g: JOURNAL>
Eur. J. Med. Chem.

> <ChEMBL_Data_Neisseria_g: VOLUME>
62

> <ChEMBL_Data_Neisseria_g: FIRST_PAGE>
270

> <ChEMBL_Data_Neisseria_g: MIC_vs_Neisseria_microg_per_mL>
500

> <ALogP>
3.506

> <Active>
0

> <Molecular_Weight>
306.382

> <ChEMBL_Data_Neisseria_g: STRAIN_of_Ng>
RCMB 010076

$$$$

Generated by Molecular Materials Informatics

 15 16  0  0  0  0  0  0  0  0999 V2000
   -0.8917    1.8800    0.0000 C   0  0  0  0  0  0  0  0  0  0  0  0
    0.4074    1.1300    0.0000 C   0  0  0  0  0  0  0  0  0  0  0  0
    1.7063    1.8800    0.0000 O   0  0  0  0  0  0  0  0  0  0  0  0
    0.4074   -0.3700    0.0000 C   0  0  0  0  0  0  0  0  0  0  0  0
    1.6208   -1.2516    0.0000 S   0  0  0  0  0  0  0  0  0  0  0  0
    1.1574   -2.6782    0.0000 C   0  0  0  0  0  0  0  0  0  0  0  0
   -0.3426   -2.6782    0.0000 N   0  0  0  0  0  0  0  0  0  0  0  0
   -0.8062   -1.2516    0.0000 C   0  0  0  0  0  0  0  0  0  0  0  0
   -2.2328   -0.7882    0.0000 C   0  0  0  0  0  0  0  0  0  0  0  0
    2.0390   -3.8918    0.0000 C   0  0  0  0  0  0  0  0  0  0  0  0
    3.5308   -3.7349    0.0000 C   0  0  0  0  0  0  0  0  0  0  0  0
    4.4125   -4.9485    0.0000 C   0  0  0  0  0  0  0  0  0  0  0  0
    3.8023   -6.3189    0.0000 C   0  0  0  0  0  0  0  0  0  0  0  0
    2.3107   -6.4756    0.0000 N   0  0  0  0  0  0  0  0  0  0  0  0
    1.4288   -5.2621    0.0000 C   0  0  0  0  0  0  0  0  0  0  0  0
  1  2  1  0  0  0  0
  2  3  2  0  0  0  0
  2  4  1  0  0  0  0
  4  5  1  0  0  0  0
  5  6  1  0  0  0  0
  6  7  2  0  0  0  0
  7  8  1  0  0  0  0
  4  8  2  0  0  0  0
  8  9  1  0  0  0  0
  6 10  1  0  0  0  0
 10 11  2  0  0  0  0
 11 12  1  0  0  0  0
 12 13  2  0  0  0  0
 13 14  1  0  0  0  0
 14 15  2  0  0  0  0
 10 15  1  0  0  0  0
M  END
> <Molecule Name>
CHEMBL2337208

> <IUPAC>
1-[4-methyl-2-(pyridin-3-yl)-1,3-thiazol-5-yl]ethan-1-one

> <Collections>
TrainingSet_Kleb_p_ALPerryman_JSF

> <ChEMBL_Data_Neisseria_g: NUM_RO5_VIOLATIONS>
0

> <ChEMBL_Data_Neisseria_g: Qualifier_for_MIC_Ng>
=

> <ChEMBL_Data_Neisseria_g: ASSAY_CHEMBLID>
CHEMBL2343213

> <ChEMBL_Data_Neisseria_g: DESCRIPTION_of_Assay_Ng>
Antibacterial activity against Neisseria gonorrhoeae RCMB 010076 assessed as growth inhibition after 24 hrs by twofold serial dilution method

> <ChEMBL_Data_Neisseria_g: PUBMED_ID>
23357308

> <ChEMBL_Data_Neisseria_g: YEAR>
2013

> <ChEMBL_Data_Neisseria_g: JOURNAL>
Eur. J. Med. Chem.

> <ChEMBL_Data_Neisseria_g: VOLUME>
62

> <ChEMBL_Data_Neisseria_g: FIRST_PAGE>
270

> <ChEMBL_Data_Neisseria_g: MIC_vs_Neisseria_microg_per_mL>
15.63

> <ALogP>
1.373

> <Active>
0

> <Molecular_Weight>
218.275

> <ChEMBL_Data_Neisseria_g: STRAIN_of_Ng>
RCMB 010076

$$$$

Generated by Molecular Materials Informatics

 22 25  0  0  0  0  0  0  0  0999 V2000
    0.0796    1.0808    0.0000 O   0  0  0  0  0  0  0  0  0  0  0  0
    1.3787    0.3308    0.0000 C   0  0  0  0  0  0  0  0  0  0  0  0
    2.6776    1.0808    0.0000 O   0  0  0  0  0  0  0  0  0  0  0  0
    3.9767    0.3308    0.0000 C   0  0  0  0  0  0  0  0  0  0  0  0
    5.2757    1.0808    0.0000 C   0  0  0  0  0  0  0  0  0  0  0  0
    6.5748    0.3308    0.0000 C   0  0  0  0  0  0  0  0  0  0  0  0
    6.5748   -1.1692    0.0000 C   0  0  0  0  0  0  0  0  0  0  0  0
    5.2757   -1.9192    0.0000 C   0  0  0  0  0  0  0  0  0  0  0  0
    3.9767   -1.1692    0.0000 C   0  0  0  0  0  0  0  0  0  0  0  0
    2.6776   -1.9192    0.0000 C   0  0  0  0  0  0  0  0  0  0  0  0
    1.3787   -1.1692    0.0000 C   0  0  0  0  0  0  0  0  0  0  0  0
    0.0796   -1.9192    0.0000 C   0  0  0  0  0  0  0  0  0  0  0  0
   -0.0771   -3.4110    0.0000 C   0  0  0  0  0  0  0  0  0  0  0  0
   -1.5443   -3.7228    0.0000 S   0  0  0  0  0  0  0  0  0  0  0  0
   -2.2943   -2.4237    0.0000 C   0  0  0  0  0  0  0  0  0  0  0  0
   -1.2907   -1.3090    0.0000 N   0  0  0  0  0  0  0  0  0  0  0  0
   -3.7861   -2.2670    0.0000 C   0  0  0  0  0  0  0  0  0  0  0  0
   -4.6677   -3.4804    0.0000 C   0  0  0  0  0  0  0  0  0  0  0  0
   -6.1595   -3.3237    0.0000 C   0  0  0  0  0  0  0  0  0  0  0  0
   -6.7695   -1.9534    0.0000 C   0  0  0  0  0  0  0  0  0  0  0  0
   -5.8879   -0.7399    0.0000 N   0  0  0  0  0  0  0  0  0  0  0  0
   -4.3961   -0.8966    0.0000 C   0  0  0  0  0  0  0  0  0  0  0  0
  1  2  2  0  0  0  0
  2  3  1  0  0  0  0
  3  4  1  0  0  0  0
  4  5  2  0  0  0  0
  5  6  1  0  0  0  0
  6  7  2  0  0  0  0
  7  8  1  0  0  0  0
  8  9  2  0  0  0  0
  4  9  1  0  0  0  0
  9 10  1  0  0  0  0
 10 11  2  0  0  0  0
  2 11  1  0  0  0  0
 11 12  1  0  0  0  0
 12 13  2  0  0  0  0
 13 14  1  0  0  0  0
 14 15  1  0  0  0  0
 15 16  2  0  0  0  0
 12 16  1  0  0  0  0
 15 17  1  0  0  0  0
 17 18  2  0  0  0  0
 18 19  1  0  0  0  0
 19 20  2  0  0  0  0
 20 21  1  0  0  0  0
 21 22  2  0  0  0  0
 17 22  1  0  0  0  0
M  END
> <Molecule Name>
CHEMBL2337207

> <CDD Number>
CDD-359516

> <IUPAC>
3-[2-(pyridin-3-yl)-1,3-thiazol-4-yl]-2H-chromen-2-one

> <Collections>
TrainingSet_Kleb_p_ALPerryman_JSF

> <ChEMBL_Data_Neisseria_g: NUM_RO5_VIOLATIONS>
0

> <ChEMBL_Data_Neisseria_g: Qualifier_for_MIC_Ng>
=

> <ChEMBL_Data_Neisseria_g: ASSAY_CHEMBLID>
CHEMBL2343213

> <ChEMBL_Data_Neisseria_g: DESCRIPTION_of_Assay_Ng>
Antibacterial activity against Neisseria gonorrhoeae RCMB 010076 assessed as growth inhibition after 24 hrs by twofold serial dilution method

> <ChEMBL_Data_Neisseria_g: PUBMED_ID>
23357308

> <ChEMBL_Data_Neisseria_g: YEAR>
2013

> <ChEMBL_Data_Neisseria_g: JOURNAL>
Eur. J. Med. Chem.

> <ChEMBL_Data_Neisseria_g: VOLUME>
62

> <ChEMBL_Data_Neisseria_g: FIRST_PAGE>
270

> <ChEMBL_Data_Neisseria_g: MIC_vs_Neisseria_microg_per_mL>
62.5

> <ALogP>
3.036

> <Active>
0

> <Molecular_Weight>
306.339

> <ChEMBL_Data_Neisseria_g: STRAIN_of_Ng>
RCMB 010076

$$$$

Generated by Molecular Materials Informatics

 43 45  0  0  0  0  0  0  0  0999 V2000
    8.2544   -6.3645    0.0000 C   0  0  0  0  0  0  0  0  0  0  0  0
    6.7813   -6.0811    0.0000 O   0  0  0  0  0  0  0  0  0  0  0  0
    6.2904   -4.6636    0.0000 C   0  0  0  0  0  0  0  0  0  0  0  0
    4.8174   -4.3801    0.0000 C   0  0  0  0  0  0  0  0  0  0  0  0
    3.8354   -5.5140    0.0000 C   0  0  0  0  0  0  0  0  0  0  0  0
    2.3623   -5.2305    0.0000 C   0  0  0  0  0  0  0  0  0  0  0  0
    4.3263   -6.9315    0.0000 C   0  0  0  0  0  0  0  0  0  0  0  0
    7.2724   -3.5297    0.0000 C   0  0  0  0  0  0  0  0  0  0  0  0
    6.7813   -2.1122    0.0000 O   0  0  0  0  0  0  0  0  0  0  0  0
    8.7454   -3.8132    0.0000 C   0  0  0  0  0  0  0  0  0  0  0  0
    9.2365   -5.2305    0.0000 O   0  0  0  0  0  0  0  0  0  0  0  0
    9.7274   -2.6792    0.0000 N   0  0  0  0  0  0  0  0  0  0  0  0
   11.2003   -2.9626    0.0000 C   0  0  0  0  0  0  0  0  0  0  0  0
   11.6914   -4.3801    0.0000 O   0  0  0  0  0  0  0  0  0  0  0  0
   10.7094   -5.5140    0.0000 C   0  0  0  0  0  0  0  0  0  0  0  0
   12.1824   -1.8288    0.0000 C   0  0  0  0  0  0  0  0  0  0  0  0
   11.6914   -0.4115    0.0000 C   0  0  0  0  0  0  0  0  0  0  0  0
   12.6735    0.7226    0.0000 C   0  0  0  0  0  0  0  0  0  0  0  0
   12.1824    2.1399    0.0000 O   0  0  0  0  0  0  0  0  0  0  0  0
   14.1464    0.4391    0.0000 C   0  0  0  0  0  0  0  0  0  0  0  0
   14.1699    1.9390    0.0000 C   0  0  0  0  0  0  0  0  0  0  0  0
   15.6276    0.6766    0.0000 C   0  0  0  0  0  0  0  0  0  0  0  0
   14.6374   -0.9784    0.0000 C   0  0  0  0  0  0  0  0  0  0  0  0
   16.1105   -1.2619    0.0000 C   0  0  0  0  0  0  0  0  0  0  0  0
   16.6014   -2.6792    0.0000 C   0  0  0  0  0  0  0  0  0  0  0  0
   15.6194   -3.8132    0.0000 O   0  0  0  0  0  0  0  0  0  0  0  0
   18.0745   -2.9626    0.0000 C   0  0  0  0  0  0  0  0  0  0  0  0
   19.0564   -1.8288    0.0000 C   0  0  0  0  0  0  0  0  0  0  0  0
   18.5655   -4.3801    0.0000 C   0  0  0  0  0  0  0  0  0  0  0  0
   20.0384   -4.6636    0.0000 C   0  0  0  0  0  0  0  0  0  0  0  0
   20.5295   -6.0811    0.0000 C   0  0  0  0  0  0  0  0  0  0  0  0
   22.0025   -6.3645    0.0000 C   0  0  0  0  0  0  0  0  0  0  0  0
   22.9845   -5.2305    0.0000 C   0  0  0  0  0  0  0  0  0  0  0  0
   22.4936   -7.7819    0.0000 C   0  0  0  0  0  0  0  0  0  0  0  0
   23.9665   -8.0653    0.0000 O   0  0  0  0  0  0  0  0  0  0  0  0
   21.5116   -8.9159    0.0000 C   0  0  0  0  0  0  0  0  0  0  0  0
   20.0384   -8.6324    0.0000 C   0  0  0  0  0  0  0  0  0  0  0  0
   19.0564   -9.7663    0.0000 O   0  0  0  0  0  0  0  0  0  0  0  0
   19.5475   -7.2149    0.0000 C   0  0  0  0  0  0  0  0  0  0  0  0
   18.0745   -6.9315    0.0000 C   0  0  0  0  0  0  0  0  0  0  0  0
   17.0925   -8.0653    0.0000 O   0  0  0  0  0  0  0  0  0  0  0  0
   17.5834   -5.5140    0.0000 O   0  0  0  0  0  0  0  0  0  0  0  0
   13.6555   -2.1122    0.0000 O   0  0  0  0  0  0  0  0  0  0  0  0
  1  2  1  0  0  0  0
  2  3  1  0  0  0  0
  3  4  1  0  0  0  0
  4  5  1  0  0  0  0
  5  6  2  0  0  0  0
  5  7  1  0  0  0  0
  3  8  1  0  0  0  0
  8  9  1  6  0  0  0
  8 10  1  0  0  0  0
 10 11  2  0  0  0  0
 10 12  1  0  0  0  0
 13 12  1  6  0  0  0
 13 14  1  0  0  0  0
 14 15  1  0  0  0  0
 16 13  1  6  0  0  0
 16 17  1  0  0  0  0
 17 18  1  0  0  0  0
 18 19  1  1  0  0  0
 18 20  1  0  0  0  0
 20 21  1  0  0  0  0
 20 22  1  0  0  0  0
 20 23  1  0  0  0  0
 23 24  1  1  0  0  0
 24 25  1  0  0  0  0
 25 26  1  1  0  0  0
 25 27  1  0  0  0  0
 27 28  1  1  0  0  0
 29 27  1  1  0  0  0
 29 30  1  0  0  0  0
 30 31  1  0  0  0  0
 31 32  2  0  0  0  0
 32 33  1  0  0  0  0
 32 34  1  0  0  0  0
 34 35  1  0  0  0  0
 34 36  2  0  0  0  0
 36 37  1  0  0  0  0
 37 38  1  0  0  0  0
 37 39  2  0  0  0  0
 31 39  1  0  0  0  0
 39 40  1  0  0  0  0
 40 41  2  0  0  0  0
 40 42  1  0  0  0  0
 29 42  1  0  0  0  0
 23 43  1  0  0  0  0
 16 43  1  0  0  0  0
M  END
> <Molecule Name>
CHEMBL2041750

> <IUPAC>
(2S)-N-[(S)-[(2S,4R,6R)-6-[(2S,3R)-3-[(3R)-6,8-dihydroxy-5-methyl-1-oxo-3,4-dihydro-1H-2-benzopyran-3-yl]-2-hydroxybutyl]-4-hydroxy-5,5-dimethyloxan-2-yl](methoxy)methyl]-2-hydroxy-3-methoxy-5-methylh
ex-5-enamide

> <ChEMBL_Data_Neisseria_g: Molecule_Preferred_NAME>
IRCINIASTATIN A

> <ChEMBL_Data_Neisseria_g: NUM_RO5_VIOLATIONS>
3

> <ChEMBL_Data_Neisseria_g: Qualifier_for_MIC_Ng>
=

> <ChEMBL_Data_Neisseria_g: ASSAY_CHEMBLID>
CHEMBL753611

> <ChEMBL_Data_Neisseria_g: DESCRIPTION_of_Assay_Ng>
Compound was tested for minimum inhibitory concentration against Neisseria gonorrhoeae ATCC 49226

> <ChEMBL_Data_Neisseria_g: PUBMED_ID>
14971894

> <ChEMBL_Data_Neisseria_g: YEAR>
2004

> <ChEMBL_Data_Neisseria_g: JOURNAL>
J. Med. Chem.

> <ChEMBL_Data_Neisseria_g: VOLUME>
47

> <ChEMBL_Data_Neisseria_g: FIRST_PAGE>
1149

> <ChEMBL_Data_Neisseria_g: MIC_vs_Neisseria_microg_per_mL>
64

> <ALogP>
2.071

> <Active>
0

> <Molecular_Weight>
609.705

$$$$

Generated by Molecular Materials Informatics

 25 26  0  0  0  0  0  0  0  0999 V2000
    4.1037    3.6637    0.0000 C   0  0  0  0  0  0  0  0  0  0  0  0
    2.8046    2.9137    0.0000 O   0  0  0  0  0  0  0  0  0  0  0  0
    2.8046    1.4138    0.0000 C   0  0  0  0  0  0  0  0  0  0  0  0
    4.1037    0.6638    0.0000 C   0  0  0  0  0  0  0  0  0  0  0  0
    4.1037   -0.8362    0.0000 C   0  0  0  0  0  0  0  0  0  0  0  0
    2.8046   -1.5862    0.0000 C   0  0  0  0  0  0  0  0  0  0  0  0
    2.8046   -3.0862    0.0000 C   0  0  0  0  0  0  0  0  0  0  0  0
    1.5055   -3.8363    0.0000 C   0  0  0  0  0  0  0  0  0  0  0  0
    0.2066   -3.0862    0.0000 C   0  0  0  0  0  0  0  0  0  0  0  0
   -1.0925   -3.8363    0.0000 C   0  0  0  0  0  0  0  0  0  0  0  0
   -2.3916   -3.0862    0.0000 C   0  0  0  0  0  0  0  0  0  0  0  0
   -3.6905   -3.8363    0.0000 I   0  0  0  0  0  0  0  0  0  0  0  0
   -2.3916   -1.5862    0.0000 C   0  0  0  0  0  0  0  0  0  0  0  0
   -3.6905   -0.8362    0.0000 O   0  0  0  0  0  0  0  0  0  0  0  0
   -4.9896   -1.5862    0.0000 C   0  0  0  0  0  0  0  0  0  0  0  0
   -1.0925   -0.8362    0.0000 C   0  0  0  0  0  0  0  0  0  0  0  0
   -1.0925    0.6638    0.0000 I   0  0  0  0  0  0  0  0  0  0  0  0
    0.2066   -1.5862    0.0000 C   0  0  0  0  0  0  0  0  0  0  0  0
    1.5055   -0.8362    0.0000 C   0  0  0  0  0  0  0  0  0  0  0  0
    1.5055    0.6638    0.0000 C   0  0  0  0  0  0  0  0  0  0  0  0
    0.2066    1.4138    0.0000 O   0  0  0  0  0  0  0  0  0  0  0  0
    0.2066    2.9137    0.0000 P   0  0  0  0  0  0  0  0  0  0  0  0
   -1.2934    2.9137    0.0000 O   0  0  0  0  0  0  0  0  0  0  0  0
    0.2066    4.4137    0.0000 O   0  0  0  0  0  0  0  0  0  0  0  0
    1.7066    2.9137    0.0000 O   0  0  0  0  0  0  0  0  0  0  0  0
  1  2  1  0  0  0  0
  2  3  1  0  0  0  0
  3  4  2  0  0  0  0
  4  5  1  0  0  0  0
  5  6  2  0  0  0  0
  6  7  1  0  0  0  0
  7  8  2  0  0  0  0
  8  9  1  0  0  0  0
  9 10  2  0  0  0  0
 10 11  1  0  0  0  0
 11 12  1  0  0  0  0
 11 13  2  0  0  0  0
 13 14  1  0  0  0  0
 14 15  1  0  0  0  0
 13 16  1  0  0  0  0
 16 17  1  0  0  0  0
 16 18  2  0  0  0  0
  9 18  1  0  0  0  0
  6 19  1  0  0  0  0
 19 20  2  0  0  0  0
  3 20  1  0  0  0  0
 20 21  1  0  0  0  0
 21 22  1  0  0  0  0
 22 23  2  0  0  0  0
 22 24  1  0  0  0  0
 22 25  1  0  0  0  0
M  END
> <Molecule Name>
CHEMBL2023883

> <IUPAC>
bis([bis(hydroxymethyl)amino]methanol); {5-[(Z)-2-(3,5-diiodo-4-methoxyphenyl)ethenyl]-2-methoxyphenoxy}phosphonic acid

> <ChEMBL_Data_Neisseria_g: Qualifier_for_MIC_Ng>
<

> <ChEMBL_Data_Neisseria_g: ASSAY_CHEMBLID>
CHEMBL2027006

> <ChEMBL_Data_Neisseria_g: DESCRIPTION_of_Assay_Ng>
Antibacterial activity against Neisseria gonorrhoeae ATCC 49226 by broth microdilution method

> <ChEMBL_Data_Neisseria_g: PUBMED_ID>
22324723

> <ChEMBL_Data_Neisseria_g: YEAR>
2012

> <ChEMBL_Data_Neisseria_g: JOURNAL>
J. Nat. Prod.

> <ChEMBL_Data_Neisseria_g: VOLUME>
75

> <ChEMBL_Data_Neisseria_g: FIRST_PAGE>
385

> <ChEMBL_Data_Neisseria_g: MIC_vs_Neisseria_microg_per_mL>
0.5

> <ALogP>
1.74

> <Active>
1

> <Molecular_Weight>
588.069

> <ChEMBL_Data_Neisseria_g: STRAIN_of_Ng>
ATCC 49226

$$$$

Generated by Molecular Materials Informatics

 26 27  0  0  0  0  0  0  0  0999 V2000
    0.3845    3.6289    0.0000 C   0  0  0  0  0  0  0  0  0  0  0  0
    1.6836    2.8789    0.0000 O   0  0  0  0  0  0  0  0  0  0  0  0
    1.6836    1.3789    0.0000 C   0  0  0  0  0  0  0  0  0  0  0  0
    0.3845    0.6288    0.0000 C   0  0  0  0  0  0  0  0  0  0  0  0
    0.3845   -0.8712    0.0000 C   0  0  0  0  0  0  0  0  0  0  0  0
    1.6836   -1.6212    0.0000 C   0  0  0  0  0  0  0  0  0  0  0  0
    1.6836   -3.1212    0.0000 C   0  0  0  0  0  0  0  0  0  0  0  0
    0.3845   -3.8712    0.0000 C   0  0  0  0  0  0  0  0  0  0  0  0
   -0.9146   -3.1212    0.0000 C   0  0  0  0  0  0  0  0  0  0  0  0
   -2.2135   -3.8712    0.0000 C   0  0  0  0  0  0  0  0  0  0  0  0
   -3.5126   -3.1212    0.0000 C   0  0  0  0  0  0  0  0  0  0  0  0
   -4.8117   -3.8712    0.0000 I   0  0  0  0  0  0  0  0  0  0  0  0
   -3.5126   -1.6212    0.0000 C   0  0  0  0  0  0  0  0  0  0  0  0
   -4.8117   -0.8712    0.0000 O   0  0  0  0  0  0  0  0  0  0  0  0
   -6.1108   -1.6212    0.0000 C   0  0  0  0  0  0  0  0  0  0  0  0
   -2.2135   -0.8712    0.0000 C   0  0  0  0  0  0  0  0  0  0  0  0
   -2.2135    0.6288    0.0000 O   0  0  0  0  0  0  0  0  0  0  0  0
   -0.9146    1.3789    0.0000 C   0  0  0  0  0  0  0  0  0  0  0  0
   -0.9146   -1.6212    0.0000 C   0  0  0  0  0  0  0  0  0  0  0  0
    2.9825   -0.8712    0.0000 C   0  0  0  0  0  0  0  0  0  0  0  0
    2.9825    0.6288    0.0000 C   0  0  0  0  0  0  0  0  0  0  0  0
    4.2816    1.3789    0.0000 O   0  0  0  0  0  0  0  0  0  0  0  0
    4.2816    2.8789    0.0000 P   0  0  0  0  0  0  0  0  0  0  0  0
    5.7816    2.8789    0.0000 O   0  0  0  0  0  0  0  0  0  0  0  0
    4.2816    4.3788    0.0000 O   0  0  0  0  0  0  0  0  0  0  0  0
    2.7816    2.8789    0.0000 O   0  0  0  0  0  0  0  0  0  0  0  0
  1  2  1  0  0  0  0
  2  3  1  0  0  0  0
  3  4  2  0  0  0  0
  4  5  1  0  0  0  0
  5  6  2  0  0  0  0
  6  7  1  0  0  0  0
  7  8  2  0  0  0  0
  8  9  1  0  0  0  0
  9 10  2  0  0  0  0
 10 11  1  0  0  0  0
 11 12  1  0  0  0  0
 11 13  2  0  0  0  0
 13 14  1  0  0  0  0
 14 15  1  0  0  0  0
 13 16  1  0  0  0  0
 16 17  1  0  0  0  0
 17 18  1  0  0  0  0
 16 19  2  0  0  0  0
  9 19  1  0  0  0  0
  6 20  1  0  0  0  0
 20 21  2  0  0  0  0
  3 21  1  0  0  0  0
 21 22  1  0  0  0  0
 22 23  1  0  0  0  0
 23 24  2  0  0  0  0
 23 25  1  0  0  0  0
 23 26  1  0  0  0  0
M  END
> <Molecule Name>
CHEMBL2023875

> <IUPAC>
bis([bis(hydroxymethyl)amino]methanol); {5-[(Z)-2-(3-iodo-4,5-dimethoxyphenyl)ethenyl]-2-methoxyphenoxy}phosphonic acid

> <ChEMBL_Data_Neisseria_g: Qualifier_for_MIC_Ng>
=

> <ChEMBL_Data_Neisseria_g: ASSAY_CHEMBLID>
CHEMBL2027006

> <ChEMBL_Data_Neisseria_g: DESCRIPTION_of_Assay_Ng>
Antibacterial activity against Neisseria gonorrhoeae ATCC 49226 by broth microdilution method

> <ChEMBL_Data_Neisseria_g: PUBMED_ID>
22324723

> <ChEMBL_Data_Neisseria_g: YEAR>
2012

> <ChEMBL_Data_Neisseria_g: JOURNAL>
J. Nat. Prod.

> <ChEMBL_Data_Neisseria_g: VOLUME>
75

> <ChEMBL_Data_Neisseria_g: FIRST_PAGE>
385

> <ChEMBL_Data_Neisseria_g: MIC_vs_Neisseria_microg_per_mL>
32

> <ALogP>
1.146

> <Active>
0

> <Molecular_Weight>
492.199

> <ChEMBL_Data_Neisseria_g: STRAIN_of_Ng>
ATCC 49226

$$$$

Generated by Molecular Materials Informatics

 24 26  0  0  0  0  0  0  0  0999 V2000
   -6.2272    4.6175    0.0000 C   0  0  0  0  0  0  0  0  0  0  0  0
   -4.9281    5.3675    0.0000 O   0  0  0  0  0  0  0  0  0  0  0  0
   -3.6291    4.6175    0.0000 C   0  0  0  0  0  0  0  0  0  0  0  0
   -2.3300    5.3675    0.0000 C   0  0  0  0  0  0  0  0  0  0  0  0
   -1.0311    4.6175    0.0000 C   0  0  0  0  0  0  0  0  0  0  0  0
   -1.0311    3.1175    0.0000 C   0  0  0  0  0  0  0  0  0  0  0  0
    0.2680    2.3675    0.0000 C   0  0  0  0  0  0  0  0  0  0  0  0
    0.2680    0.8675    0.0000 C   0  0  0  0  0  0  0  0  0  0  0  0
    1.5671    0.1175    0.0000 C   0  0  0  0  0  0  0  0  0  0  0  0
    2.8660    0.8675    0.0000 O   0  0  0  0  0  0  0  0  0  0  0  0
    1.5671   -1.3825    0.0000 C   0  0  0  0  0  0  0  0  0  0  0  0
    2.7805   -2.2641    0.0000 S   0  0  0  0  0  0  0  0  0  0  0  0
    2.3171   -3.6906    0.0000 C   0  0  0  0  0  0  0  0  0  0  0  0
    0.8171   -3.6906    0.0000 N   0  0  0  0  0  0  0  0  0  0  0  0
    0.3534   -2.2641    0.0000 C   0  0  0  0  0  0  0  0  0  0  0  0
   -1.0731   -1.8007    0.0000 C   0  0  0  0  0  0  0  0  0  0  0  0
    3.1987   -4.9043    0.0000 C   0  0  0  0  0  0  0  0  0  0  0  0
    4.6905   -4.7474    0.0000 C   0  0  0  0  0  0  0  0  0  0  0  0
    5.5721   -5.9610    0.0000 C   0  0  0  0  0  0  0  0  0  0  0  0
    4.9620   -7.3313    0.0000 C   0  0  0  0  0  0  0  0  0  0  0  0
    3.4703   -7.4881    0.0000 N   0  0  0  0  0  0  0  0  0  0  0  0
    2.5885   -6.2746    0.0000 C   0  0  0  0  0  0  0  0  0  0  0  0
   -2.3300    2.3675    0.0000 C   0  0  0  0  0  0  0  0  0  0  0  0
   -3.6291    3.1175    0.0000 C   0  0  0  0  0  0  0  0  0  0  0  0
  1  2  1  0  0  0  0
  2  3  1  0  0  0  0
  3  4  2  0  0  0  0
  4  5  1  0  0  0  0
  5  6  2  0  0  0  0
  6  7  1  0  0  0  0
  7  8  2  0  0  0  0
  8  9  1  0  0  0  0
  9 10  2  0  0  0  0
  9 11  1  0  0  0  0
 11 12  1  0  0  0  0
 12 13  1  0  0  0  0
 13 14  2  0  0  0  0
 14 15  1  0  0  0  0
 11 15  2  0  0  0  0
 15 16  1  0  0  0  0
 13 17  1  0  0  0  0
 17 18  2  0  0  0  0
 18 19  1  0  0  0  0
 19 20  2  0  0  0  0
 20 21  1  0  0  0  0
 21 22  2  0  0  0  0
 17 22  1  0  0  0  0
  6 23  1  0  0  0  0
 23 24  2  0  0  0  0
  3 24  1  0  0  0  0
M  END
> <Molecule Name>
CHEMBL1968706

> <IUPAC>
(2E)-3-(4-methoxyphenyl)-1-[4-methyl-2-(pyridin-3-yl)-1,3-thiazol-5-yl]prop-2-en-1-one

> <Collections>
TrainingSet_Kleb_p_ALPerryman_JSF

> <ChEMBL_Data_Neisseria_g: NUM_RO5_VIOLATIONS>
0

> <ChEMBL_Data_Neisseria_g: Qualifier_for_MIC_Ng>
=

> <ChEMBL_Data_Neisseria_g: ASSAY_CHEMBLID>
CHEMBL2343213

> <ChEMBL_Data_Neisseria_g: DESCRIPTION_of_Assay_Ng>
Antibacterial activity against Neisseria gonorrhoeae RCMB 010076 assessed as growth inhibition after 24 hrs by twofold serial dilution method

> <ChEMBL_Data_Neisseria_g: PUBMED_ID>
23357308

> <ChEMBL_Data_Neisseria_g: YEAR>
2013

> <ChEMBL_Data_Neisseria_g: JOURNAL>
Eur. J. Med. Chem.

> <ChEMBL_Data_Neisseria_g: VOLUME>
62

> <ChEMBL_Data_Neisseria_g: FIRST_PAGE>
270

> <ChEMBL_Data_Neisseria_g: MIC_vs_Neisseria_microg_per_mL>
125

> <ALogP>
3.489

> <Active>
0

> <Molecular_Weight>
336.408

> <ChEMBL_Data_Neisseria_g: STRAIN_of_Ng>
RCMB 010076

$$$$

Generated by Molecular Materials Informatics

 42 45  0  0  0  0  0  0  0  0999 V2000
    1.2089    7.2119    0.0000 C   0  0  0  0  0  0  0  0  0  0  0  0
    1.2089    5.7119    0.0000 O   0  0  0  0  0  0  0  0  0  0  0  0
    2.5078    4.9619    0.0000 C   0  0  0  0  0  0  0  0  0  0  0  0
    3.8069    5.7119    0.0000 C   0  0  0  0  0  0  0  0  0  0  0  0
    5.1060    4.9619    0.0000 C   0  0  0  0  0  0  0  0  0  0  0  0
    5.1060    3.4619    0.0000 C   0  0  0  0  0  0  0  0  0  0  0  0
    6.4051    2.7119    0.0000 C   0  0  0  0  0  0  0  0  0  0  0  0
    6.4051    1.2119    0.0000 C   0  0  0  0  0  0  0  0  0  0  0  0
    5.1060    0.4619    0.0000 C   0  0  0  0  0  0  0  0  0  0  0  0
    5.1060   -1.0381    0.0000 C   0  0  0  0  0  0  0  0  0  0  0  0
    3.8069   -1.7881    0.0000 C   0  0  0  0  0  0  0  0  0  0  0  0
    3.8069   -3.2881    0.0000 O   0  0  0  0  0  0  0  0  0  0  0  0
    5.1060   -4.0381    0.0000 C   0  0  0  0  0  0  0  0  0  0  0  0
    2.5078   -1.0381    0.0000 C   0  0  0  0  0  0  0  0  0  0  0  0
    1.0813   -1.5016    0.0000 O   0  0  0  0  0  0  0  0  0  0  0  0
    0.1996   -0.2881    0.0000 C   0  0  0  0  0  0  0  0  0  0  0  0
    1.0813    0.9255    0.0000 O   0  0  0  0  0  0  0  0  0  0  0  0
    2.5078    0.4619    0.0000 C   0  0  0  0  0  0  0  0  0  0  0  0
    3.8069    1.2119    0.0000 C   0  0  0  0  0  0  0  0  0  0  0  0
    3.8069    2.7119    0.0000 C   0  0  0  0  0  0  0  0  0  0  0  0
    2.5078    3.4619    0.0000 C   0  0  0  0  0  0  0  0  0  0  0  0
    1.2089    2.7119    0.0000 N   0  0  0  0  0  0  0  0  0  0  0  0
   -0.0902    3.4619    0.0000 C   0  0  0  0  0  0  0  0  0  0  0  0
   -0.0902    4.9619    0.0000 O   0  0  0  0  0  0  0  0  0  0  0  0
   -1.3893    2.7119    0.0000 C   0  0  0  0  0  0  0  0  0  0  0  0
   -2.6882    3.4619    0.0000 C   0  0  0  0  0  0  0  0  0  0  0  0
   -2.6882    4.9619    0.0000 C   0  0  0  0  0  0  0  0  0  0  0  0
   -3.9873    5.7119    0.0000 C   0  0  0  0  0  0  0  0  0  0  0  0
   -3.9873    7.2119    0.0000 C   0  0  0  0  0  0  0  0  0  0  0  0
   -2.6882    7.9619    0.0000 C   0  0  0  0  0  0  0  0  0  0  0  0
   -2.6882    9.4619    0.0000 O   0  0  0  0  0  0  0  0  0  0  0  0
   -1.3893   10.2119    0.0000 P   0  0  0  0  0  0  0  0  0  0  0  0
   -2.1393   11.5109    0.0000 O   0  0  0  0  0  0  0  0  0  0  0  0
   -0.6393    8.9129    0.0000 O   0  0  0  0  0  0  0  0  0  0  0  0
   -0.0902   10.9619    0.0000 O   0  5  0  0  0  0  0  0  0  0  0  0
   -1.3893    7.2119    0.0000 C   0  0  0  0  0  0  0  0  0  0  0  0
   -1.3893    5.7119    0.0000 C   0  0  0  0  0  0  0  0  0  0  0  0
   -1.3893    1.2119    0.0000 N   0  0  0  0  0  0  0  0  0  0  0  0
   -2.6882    0.4619    0.0000 P   0  0  0  0  0  0  0  0  0  0  0  0
   -3.4382    1.7609    0.0000 O   0  0  0  0  0  0  0  0  0  0  0  0
   -1.9382   -0.8371    0.0000 O   0  0  0  0  0  0  0  0  0  0  0  0
   -3.9873   -0.2881    0.0000 O   0  0  0  0  0  0  0  0  0  0  0  0
  1  2  1  0  0  0  0
  2  3  1  0  0  0  0
  3  4  2  0  0  0  0
  4  5  1  0  0  0  0
  5  6  2  0  0  0  0
  6  7  1  0  0  0  0
  7  8  2  0  0  0  0
  8  9  1  0  0  0  0
  9 10  2  0  0  0  0
 10 11  1  0  0  0  0
 11 12  1  0  0  0  0
 12 13  1  0  0  0  0
 11 14  2  0  0  0  0
 14 15  1  0  0  0  0
 15 16  1  0  0  0  0
 16 17  1  0  0  0  0
 17 18  1  0  0  0  0
 14 18  1  0  0  0  0
 18 19  2  0  0  0  0
  9 19  1  0  0  0  0
  6 20  1  0  0  0  0
 20 21  2  0  0  0  0
  3 21  1  0  0  0  0
 21 22  1  0  0  0  0
 22 23  1  0  0  0  0
 23 24  2  0  0  0  0
 23 25  1  0  0  0  0
 25 26  1  0  0  0  0
 26 27  1  0  0  0  0
 27 28  2  0  0  0  0
 28 29  1  0  0  0  0
 29 30  2  0  0  0  0
 30 31  1  0  0  0  0
 31 32  1  0  0  0  0
 32 33  2  0  0  0  0
 32 34  1  0  0  0  0
 32 35  1  0  0  0  0
 30 36  1  0  0  0  0
 36 37  2  0  0  0  0
 27 37  1  0  0  0  0
 25 38  1  1  0  0  0
 38 39  1  0  0  0  0
 39 40  2  0  0  0  0
 39 41  1  0  0  0  0
 39 42  1  0  0  0  0
M  CHG  1  35  -1
M  END
> <Molecule Name>
CHEMBL1627102

> <IUPAC>
sodium {[(1S)-1-({2-methoxy-5-[(Z)-2-(7-methoxy-2H-1,3-benzodioxol-5-yl)ethenyl]phenyl}carbamoyl)-2-[4-(phosphonooxy)phenyl]ethyl]amino}phosphonic acid

> <ChEMBL_Data_Neisseria_g: NUM_RO5_VIOLATIONS>
3

> <ChEMBL_Data_Neisseria_g: Qualifier_for_MIC_Ng>
=

> <ChEMBL_Data_Neisseria_g: ASSAY_CHEMBLID>
CHEMBL1006824

> <ChEMBL_Data_Neisseria_g: DESCRIPTION_of_Assay_Ng>
Antimicrobial activity against Neisseria gonorrhoeae ATCC 49226 by broth microdilution assay

> <ChEMBL_Data_Neisseria_g: PUBMED_ID>
16124759

> <ChEMBL_Data_Neisseria_g: YEAR>
2005

> <ChEMBL_Data_Neisseria_g: JOURNAL>
J. Nat. Prod.

> <ChEMBL_Data_Neisseria_g: VOLUME>
68

> <ChEMBL_Data_Neisseria_g: FIRST_PAGE>
1191

> <ChEMBL_Data_Neisseria_g: MIC_vs_Neisseria_microg_per_mL>
4

> <ALogP>
1.537

> <Active>
1

> <Molecular_Weight>
621.446

$$$$

Generated by Molecular Materials Informatics

 59 63  0  0  0  0  0  0  0  0999 V2000
    0.3402    3.6994    0.0000 C   0  0  0  0  0  0  0  0  0  0  0  0
    0.3402    2.1994    0.0000 C   0  0  0  0  0  0  0  0  0  0  0  0
    1.6392    1.4494    0.0000 C   0  0  0  0  0  0  0  0  0  0  0  0
    1.6392    2.9494    0.0000 O   0  0  0  0  0  0  0  0  0  0  0  0
    2.9382    3.6994    0.0000 C   0  0  0  0  0  0  0  0  0  0  0  0
    2.9382    5.1994    0.0000 O   0  0  0  0  0  0  0  0  0  0  0  0
    4.2372    2.9494    0.0000 C   0  0  0  0  0  0  0  0  0  0  0  0
    4.7503    4.3588    0.0000 C   0  0  0  0  0  0  0  0  0  0  0  0
    5.7145    2.6888    0.0000 F   0  0  0  0  0  0  0  0  0  0  0  0
    4.2372    1.4494    0.0000 C   0  0  0  0  0  0  0  0  0  0  0  0
    2.9382    0.6994    0.0000 O   0  0  0  0  0  0  0  0  0  0  0  0
    5.5363    0.6994    0.0000 C   0  0  0  0  0  0  0  0  0  0  0  0
    5.5363   -0.8006    0.0000 C   0  0  0  0  0  0  0  0  0  0  0  0
    4.2372   -1.5506    0.0000 C   0  0  0  0  0  0  0  0  0  0  0  0
    5.2014   -2.6997    0.0000 C   0  0  0  0  0  0  0  0  0  0  0  0
    4.2372   -3.0506    0.0000 C   0  0  0  0  0  0  0  0  0  0  0  0
    2.9382   -3.8006    0.0000 C   0  0  0  0  0  0  0  0  0  0  0  0
    2.9382   -5.3006    0.0000 C   0  0  0  0  0  0  0  0  0  0  0  0
    1.6392   -3.0506    0.0000 C   0  0  0  0  0  0  0  0  0  0  0  0
    0.3402   -3.8006    0.0000 O   0  0  0  0  0  0  0  0  0  0  0  0
    1.6392   -1.5506    0.0000 C   0  0  0  0  0  0  0  0  0  0  0  0
    2.9382   -0.8006    0.0000 C   0  0  0  0  0  0  0  0  0  0  0  0
    0.3402   -0.8006    0.0000 C   0  0  0  0  0  0  0  0  0  0  0  0
   -1.0864   -1.2643    0.0000 N   0  0  0  0  0  0  0  0  0  0  0  0
   -1.5500   -2.6908    0.0000 C   0  0  0  0  0  0  0  0  0  0  0  0
   -3.0171   -3.0026    0.0000 C   0  0  0  0  0  0  0  0  0  0  0  0
   -3.4808   -4.4294    0.0000 C   0  0  0  0  0  0  0  0  0  0  0  0
   -4.9480   -4.7412    0.0000 C   0  0  0  0  0  0  0  0  0  0  0  0
   -5.4115   -6.1677    0.0000 N   0  0  0  0  0  0  0  0  0  0  0  0
   -4.5298   -7.3812    0.0000 C   0  0  0  0  0  0  0  0  0  0  0  0
   -5.4115   -8.5948    0.0000 C   0  0  0  0  0  0  0  0  0  0  0  0
   -6.8380   -8.1312    0.0000 N   0  0  0  0  0  0  0  0  0  0  0  0
   -6.8380   -6.6312    0.0000 N   0  0  0  0  0  0  0  0  0  0  0  0
   -4.9480  -10.0214    0.0000 C   0  0  0  0  0  0  0  0  0  0  0  0
   -3.4808  -10.3332    0.0000 C   0  0  0  0  0  0  0  0  0  0  0  0
   -3.0171  -11.7597    0.0000 C   0  0  0  0  0  0  0  0  0  0  0  0
   -4.0209  -12.8745    0.0000 C   0  0  0  0  0  0  0  0  0  0  0  0
   -5.4882  -12.5626    0.0000 C   0  0  0  0  0  0  0  0  0  0  0  0
   -6.4918  -13.6774    0.0000 N   0  0  0  0  0  0  0  0  0  0  0  0
   -5.9517  -11.1361    0.0000 C   0  0  0  0  0  0  0  0  0  0  0  0
   -1.9682   -0.0506    0.0000 C   0  0  0  0  0  0  0  0  0  0  0  0
   -3.4682   -0.0506    0.0000 O   0  0  0  0  0  0  0  0  0  0  0  0
   -1.0864    1.1628    0.0000 O   0  0  0  0  0  0  0  0  0  0  0  0
    0.3402    0.6994    0.0000 C   0  0  0  0  0  0  0  0  0  0  0  0
   -0.2700    2.0695    0.0000 C   0  0  0  0  0  0  0  0  0  0  0  0
    5.7145   -1.8112    0.0000 O   0  0  0  0  0  0  0  0  0  0  0  0
    6.2274   -3.2206    0.0000 C   0  0  0  0  0  0  0  0  0  0  0  0
    6.8352    1.4494    0.0000 O   0  0  0  0  0  0  0  0  0  0  0  0
    8.1343    0.6994    0.0000 C   0  0  0  0  0  0  0  0  0  0  0  0
    9.4334    1.4494    0.0000 O   0  0  0  0  0  0  0  0  0  0  0  0
   10.7325    0.6994    0.0000 C   0  0  0  0  0  0  0  0  0  0  0  0
   12.0314    1.4494    0.0000 C   0  0  0  0  0  0  0  0  0  0  0  0
   10.7325   -0.8006    0.0000 C   0  0  0  0  0  0  0  0  0  0  0  0
    9.4334   -1.5506    0.0000 C   0  0  0  0  0  0  0  0  0  0  0  0
    8.1343   -0.8006    0.0000 C   0  0  0  0  0  0  0  0  0  0  0  0
    6.8352   -1.5506    0.0000 O   0  0  0  0  0  0  0  0  0  0  0  0
    9.4334   -3.0506    0.0000 N   0  0  0  0  0  0  0  0  0  0  0  0
   10.7325   -3.8006    0.0000 C   0  0  0  0  0  0  0  0  0  0  0  0
    8.1343   -3.8006    0.0000 C   0  0  0  0  0  0  0  0  0  0  0  0
  1  2  1  0  0  0  0
  3  2  1  6  0  0  0
  3  4  1  0  0  0  0
  4  5  1  0  0  0  0
  5  6  2  0  0  0  0
  5  7  1  0  0  0  0
  7  8  1  6  0  0  0
  7  9  1  1  0  0  0
  7 10  1  0  0  0  0
 10 11  2  0  0  0  0
 10 12  1  0  0  0  0
 12 13  1  0  0  0  0
 13 14  1  0  0  0  0
 14 15  1  1  0  0  0
 14 16  1  0  0  0  0
 16 17  1  0  0  0  0
 17 18  1  1  0  0  0
 17 19  1  0  0  0  0
 19 20  2  0  0  0  0
 19 21  1  0  0  0  0
 21 22  1  1  0  0  0
 21 23  1  0  0  0  0
 23 24  1  1  0  0  0
 24 25  1  0  0  0  0
 25 26  1  0  0  0  0
 26 27  1  0  0  0  0
 27 28  1  0  0  0  0
 28 29  1  0  0  0  0
 29 30  1  0  0  0  0
 30 31  2  0  0  0  0
 31 32  1  0  0  0  0
 32 33  2  0  0  0  0
 29 33  1  0  0  0  0
 31 34  1  0  0  0  0
 34 35  2  0  0  0  0
 35 36  1  0  0  0  0
 36 37  2  0  0  0  0
 37 38  1  0  0  0  0
 38 39  1  0  0  0  0
 38 40  2  0  0  0  0
 34 40  1  0  0  0  0
 24 41  1  0  0  0  0
 41 42  2  0  0  0  0
 41 43  1  0  0  0  0
 43 44  1  0  0  0  0
  3 44  1  0  0  0  0
 23 44  1  0  0  0  0
 44 45  1  1  0  0  0
 14 46  1  6  0  0  0
 46 47  1  0  0  0  0
 12 48  1  6  0  0  0
 49 48  1  6  0  0  0
 49 50  1  0  0  0  0
 50 51  1  0  0  0  0
 51 52  1  6  0  0  0
 51 53  1  0  0  0  0
 53 54  1  0  0  0  0
 54 55  1  0  0  0  0
 49 55  1  0  0  0  0
 55 56  1  1  0  0  0
 54 57  1  6  0  0  0
 57 58  1  0  0  0  0
 57 59  1  0  0  0  0
M  END
> <Molecule Name>
CHEMBL1240704

> <IUPAC>
(3aS,4R,7S,9R,11R,13R,15R,15aR)-1-{4-[4-(3-aminophenyl)-1H-1,2,3-triazol-1-yl]butyl}-9-{[(2S,3R,4S,6R)-4-(dimethylamino)-3-hydroxy-6-methyloxan-2-yl]oxy}-4-ethyl-7-fluoro-11-methoxy-3a,7,11,13,15-pent
amethyl-tetradecahydro-1H-oxacyclotetradeca[4,3-d][1,3]oxazole-2,6,8,14-tetrone

> <ChEMBL_Data_Neisseria_g: Molecule_Preferred_NAME>
SOLITHROMYCIN

> <ChEMBL_Data_Neisseria_g: NUM_RO5_VIOLATIONS>
2

> <ChEMBL_Data_Neisseria_g: Qualifier_for_MIC_Ng>
<=

> <ChEMBL_Data_Neisseria_g: ASSAY_CHEMBLID>
CHEMBL1247273

> <ChEMBL_Data_Neisseria_g: DESCRIPTION_of_Assay_Ng>
Antimicrobial activity against Neisseria gonorrhoeae by microtiter plate reader assay

> <ChEMBL_Data_Neisseria_g: PUBMED_ID>
20038627

> <ChEMBL_Data_Neisseria_g: YEAR>
2010

> <ChEMBL_Data_Neisseria_g: JOURNAL>
Antimicrob. Agents Chemother.

> <ChEMBL_Data_Neisseria_g: VOLUME>
54

> <ChEMBL_Data_Neisseria_g: FIRST_PAGE>
1358

> <ChEMBL_Data_Neisseria_g: MIC_vs_Neisseria_microg_per_mL>
0.25

> <ALogP>
4.26

> <Active>
1

> <Molecular_Weight>
830.982

$$$$

Generated by Molecular Materials Informatics

 27 30  0  0  0  0  0  0  0  0999 V2000
   -1.4048   -2.6408    0.0000 C   0  0  0  0  0  0  0  0  0  0  0  0
   -0.1058   -1.8908    0.0000 O   0  0  0  0  0  0  0  0  0  0  0  0
   -0.1058   -0.3908    0.0000 C   0  0  0  0  0  0  0  0  0  0  0  0
   -1.4048    0.3592    0.0000 C   0  0  0  0  0  0  0  0  0  0  0  0
   -1.4048    1.8592    0.0000 C   0  0  0  0  0  0  0  0  0  0  0  0
   -0.1058    2.6091    0.0000 C   0  0  0  0  0  0  0  0  0  0  0  0
    1.1931    1.8592    0.0000 C   0  0  0  0  0  0  0  0  0  0  0  0
    2.4922    2.6091    0.0000 C   0  0  0  0  0  0  0  0  0  0  0  0
    2.4922    4.1091    0.0000 O   0  0  0  0  0  0  0  0  0  0  0  0
    3.7913    1.8592    0.0000 C   0  0  0  0  0  0  0  0  0  0  0  0
    3.7913    0.3592    0.0000 C   0  0  0  0  0  0  0  0  0  0  0  0
    2.4922   -0.3908    0.0000 N   0  0  0  0  0  0  0  0  0  0  0  0
    2.4922   -1.8908    0.0000 C   0  0  0  0  0  0  0  0  0  0  0  0
    3.2422   -3.1898    0.0000 C   0  0  0  0  0  0  0  0  0  0  0  0
    1.7422   -3.1898    0.0000 C   0  0  0  0  0  0  0  0  0  0  0  0
    1.1931    0.3592    0.0000 C   0  0  0  0  0  0  0  0  0  0  0  0
    5.0902    2.6091    0.0000 C   0  0  0  0  0  0  0  0  0  0  0  0
    6.3893    1.8592    0.0000 O   0  0  0  0  0  0  0  0  0  0  0  0
    5.0902    4.1091    0.0000 O   0  0  0  0  0  0  0  0  0  0  0  0
   -2.7039   -0.3908    0.0000 N   0  0  0  0  0  0  0  0  0  0  0  0
   -2.7039   -1.8908    0.0000 C   0  0  0  0  0  0  0  0  0  0  0  0
   -4.0030   -2.6408    0.0000 C   0  0  0  0  0  0  0  0  0  0  0  0
   -4.0030   -4.1409    0.0000 C   0  0  0  0  0  0  0  0  0  0  0  0
   -5.3019   -1.8908    0.0000 C   0  0  0  0  0  0  0  0  0  0  0  0
   -5.3019   -0.3908    0.0000 C   0  0  0  0  0  0  0  0  0  0  0  0
   -6.6010    0.3592    0.0000 N   0  0  0  0  0  0  0  0  0  0  0  0
   -4.0030    0.3592    0.0000 C   0  0  0  0  0  0  0  0  0  0  0  0
  1  2  1  0  0  0  0
  2  3  1  0  0  0  0
  3  4  2  0  0  0  0
  4  5  1  0  0  0  0
  5  6  2  0  0  0  0
  6  7  1  0  0  0  0
  7  8  1  0  0  0  0
  8  9  2  0  0  0  0
  8 10  1  0  0  0  0
 10 11  2  0  0  0  0
 11 12  1  0  0  0  0
 12 13  1  0  0  0  0
 13 14  1  0  0  0  0
 14 15  1  0  0  0  0
 13 15  1  0  0  0  0
 12 16  1  0  0  0  0
  3 16  1  0  0  0  0
  7 16  2  0  0  0  0
 10 17  1  0  0  0  0
 17 18  2  0  0  0  0
 17 19  1  0  0  0  0
  4 20  1  0  0  0  0
 20 21  1  0  0  0  0
 21 22  1  0  0  0  0
 22 23  1  1  0  0  0
 22 24  1  0  0  0  0
 24 25  1  0  0  0  0
 25 26  1  6  0  0  0
 25 27  1  0  0  0  0
 20 27  1  0  0  0  0
M  END
> <Molecule Name>
CHEMBL1213283

> <IUPAC>
2-hydroxybutanedioic acid; 7-[(3S,5S)-3-amino-5-methylpiperidin-1-yl]-1-cyclopropyl-8-methoxy-4-oxo-1,4-dihydroquinoline-3-carboxylic acid

> <Collections>
Set2_NotListedAsBetaLactamResistant (mostly)
TrainingSet_Kleb_p_ALPerryman_JSF

> <ChEMBL_Data_Neisseria_g: Molecule_Preferred_NAME>
NEMONOXACIN MALIC ACID

> <ChEMBL_Data_Neisseria_g: NUM_RO5_VIOLATIONS>
0

> <ChEMBL_Data_Neisseria_g: Qualifier_for_MIC_Ng>
=

> <ChEMBL_Data_Neisseria_g: ASSAY_CHEMBLID>
CHEMBL1247539

> <ChEMBL_Data_Neisseria_g: DESCRIPTION_of_Assay_Ng>
Antibacterial activity against ciprofloxacin resistant Neisseria gonorrhoeae isolates by broth dilution method

> <ChEMBL_Data_Neisseria_g: PUBMED_ID>
20065058

> <ChEMBL_Data_Neisseria_g: YEAR>
2010

> <ChEMBL_Data_Neisseria_g: JOURNAL>
Antimicrob. Agents Chemother.

> <ChEMBL_Data_Neisseria_g: VOLUME>
54

> <ChEMBL_Data_Neisseria_g: FIRST_PAGE>
1338

> <ChEMBL_Data_Neisseria_g: MIC_vs_Neisseria_microg_per_mL>
0.25

> <ALogP>
-1.718

> <Active>
1

> <Molecular_Weight>
371.43

$$$$

Generated by Molecular Materials Informatics

 25 28  0  0  0  0  0  0  0  0999 V2000
   -1.5565   -1.0153    0.0000 C   0  0  0  0  0  0  0  0  0  0  0  0
   -0.2246   -0.3253    0.0000 O   0  0  0  0  0  0  0  0  0  0  0  0
    1.0391   -1.1339    0.0000 C   0  0  0  0  0  0  0  0  0  0  0  0
    0.9707   -2.6323    0.0000 C   0  0  0  0  0  0  0  0  0  0  0  0
    2.2342   -3.4407    0.0000 C   0  0  0  0  0  0  0  0  0  0  0  0
    3.5661   -2.7507    0.0000 C   0  0  0  0  0  0  0  0  0  0  0  0
    3.6344   -1.2522    0.0000 C   0  0  0  0  0  0  0  0  0  0  0  0
    2.3709   -0.4439    0.0000 C   0  0  0  0  0  0  0  0  0  0  0  0
    2.4393    1.0547    0.0000 C   0  0  0  0  0  0  0  0  0  0  0  0
    3.7712    1.7448    0.0000 C   0  0  0  0  0  0  0  0  0  0  0  0
    3.8395    3.2432    0.0000 C   0  0  0  0  0  0  0  0  0  0  0  0
    5.1716    3.9332    0.0000 O   0  0  0  0  0  0  0  0  0  0  0  0
    2.5760    4.0518    0.0000 O   0  0  0  0  0  0  0  0  0  0  0  0
    5.0348    0.9364    0.0000 C   0  0  0  0  0  0  0  0  0  0  0  0
    6.3667    1.6264    0.0000 C   0  0  0  0  0  0  0  0  0  0  0  0
    7.6302    0.8178    0.0000 C   0  0  0  0  0  0  0  0  0  0  0  0
    7.5618   -0.6806    0.0000 C   0  0  0  0  0  0  0  0  0  0  0  0
    8.6297   -1.7341    0.0000 O   0  0  0  0  0  0  0  0  0  0  0  0
    7.9577   -3.0752    0.0000 C   0  0  0  0  0  0  0  0  0  0  0  0
    6.4745   -2.8507    0.0000 O   0  0  0  0  0  0  0  0  0  0  0  0
    6.2300   -1.3706    0.0000 C   0  0  0  0  0  0  0  0  0  0  0  0
    4.9663   -0.5622    0.0000 C   0  0  0  0  0  0  0  0  0  0  0  0
    6.4351    3.1248    0.0000 C   0  0  0  0  0  0  0  0  0  0  0  0
    5.8880    4.5216    0.0000 O   0  0  0  0  0  0  0  0  0  0  0  0
    7.7669    3.8148    0.0000 O   0  0  0  0  0  0  0  0  0  0  0  0
  1  2  1  0  0  0  0
  2  3  1  0  0  0  0
  3  4  1  0  0  0  0
  4  5  2  0  0  0  0
  5  6  1  0  0  0  0
  6  7  2  0  0  0  0
  7  8  1  0  0  0  0
  3  8  2  0  0  0  0
  8  9  1  0  0  0  0
  9 10  2  0  0  0  0
 10 11  1  0  0  0  0
 11 12  2  0  0  0  0
 11 13  1  0  0  0  0
 10 14  1  0  0  0  0
 14 15  2  0  0  0  0
 15 16  1  0  0  0  0
 16 17  2  0  0  0  0
 17 18  1  0  0  0  0
 18 19  1  0  0  0  0
 19 20  1  0  0  0  0
 20 21  1  0  0  0  0
 17 21  1  0  0  0  0
 21 22  2  0  0  0  0
  7 22  1  0  0  0  0
 14 22  1  0  0  0  0
 15 23  1  0  0  0  0
 23 24  2  0  0  0  0
 23 25  1  0  0  0  0
M  END
> <Molecule Name>
CHEMBL1087295

> <CDD Number>
CDD-2171252

> <IUPAC>
8-methoxy-2H-phenanthro[3,4-d][1,3]dioxole-5,6-dicarboxylic acid

> <ChEMBL_Data_Neisseria_g: Molecule_Preferred_NAME>
PAPILISTATIN

> <ChEMBL_Data_Neisseria_g: NUM_RO5_VIOLATIONS>
0

> <ChEMBL_Data_Neisseria_g: Qualifier_for_MIC_Ng>
=

> <ChEMBL_Data_Neisseria_g: ASSAY_CHEMBLID>
CHEMBL1102659

> <ChEMBL_Data_Neisseria_g: DESCRIPTION_of_Assay_Ng>
Antibacterial activity against Neisseria gonorrheae ATCC 49226

> <ChEMBL_Data_Neisseria_g: PUBMED_ID>
20085286

> <ChEMBL_Data_Neisseria_g: YEAR>
2010

> <ChEMBL_Data_Neisseria_g: JOURNAL>
J. Nat. Prod.

> <ChEMBL_Data_Neisseria_g: VOLUME>
73

> <ChEMBL_Data_Neisseria_g: FIRST_PAGE>
164

> <ChEMBL_Data_Neisseria_g: MIC_vs_Neisseria_microg_per_mL>
8

> <ALogP>
2.658

> <Active>
1

> <Molecular_Weight>
340.284

> <ChEMBL_Data_Neisseria_g: STRAIN_of_Ng>
ATCC 49226

$$$$

Generated by Molecular Materials Informatics

 17 19  0  0  0  0  0  0  0  0999 V2000
    1.8660    2.3239    0.0000 C   0  0  0  0  0  0  0  0  0  0  0  0
    2.2571    0.8757    0.0000 C   0  0  0  0  0  0  0  0  0  0  0  0
    3.7067    0.4902    0.0000 C   0  0  0  0  0  0  0  0  0  0  0  0
    4.9631    1.3097    0.0000 C   0  0  0  0  0  0  0  0  0  0  0  0
    6.1308    0.3680    0.0000 C   0  0  0  0  0  0  0  0  0  0  0  0
    6.9452    1.6277    0.0000 C   0  0  0  0  0  0  0  0  0  0  0  0
    7.4686   -0.3104    0.0000 C   0  0  0  0  0  0  0  0  0  0  0  0
    7.5501   -1.8080    0.0000 O   0  0  0  0  0  0  0  0  0  0  0  0
    5.5959   -1.0335    0.0000 C   0  0  0  0  0  0  0  0  0  0  0  0
    4.0978   -0.9578    0.0000 C   0  0  0  0  0  0  0  0  0  0  0  0
    3.0393   -2.0206    0.0000 C   0  0  0  0  0  0  0  0  0  0  0  0
    3.4304   -3.4688    0.0000 O   0  0  0  0  0  0  0  0  0  0  0  0
    1.5896   -1.6353    0.0000 C   0  0  0  0  0  0  0  0  0  0  0  0
    0.5311   -2.6980    0.0000 C   0  0  0  0  0  0  0  0  0  0  0  0
    1.1985   -0.1871    0.0000 C   0  0  0  0  0  0  0  0  0  0  0  0
   -0.2497   -0.5782    0.0000 C   0  0  0  0  0  0  0  0  0  0  0  0
    0.1358    0.8715    0.0000 C   0  0  0  0  0  0  0  0  0  0  0  0
  1  2  1  0  0  0  0
  2  3  2  0  0  0  0
  3  4  1  0  0  0  0
  4  5  1  0  0  0  0
  5  6  1  6  0  0  0
  5  7  1  1  0  0  0
  7  8  1  0  0  0  0
  5  9  1  0  0  0  0
 10  9  1  1  0  0  0
  3 10  1  0  0  0  0
 10 11  1  0  0  0  0
 11 12  1  6  0  0  0
 11 13  1  0  0  0  0
 13 14  2  0  0  0  0
 13 15  1  0  0  0  0
  2 15  1  0  0  0  0
 15 16  1  0  0  0  0
 16 17  1  0  0  0  0
 15 17  1  0  0  0  0
M  END
> <Molecule Name>
CHEMBL1075892

> <IUPAC>
(2'S,7'S,7'aR)-2'-(hydroxymethyl)-2',4'-dimethyl-6'-methylidene-1',2',3',6',7',7'a-hexahydrospiro[cyclopropane-1,5'-inden]-7'-ol

> <ChEMBL_Data_Neisseria_g: Molecule_Preferred_NAME>
COPRINASTATIN 1

> <ChEMBL_Data_Neisseria_g: NUM_RO5_VIOLATIONS>
0

> <ChEMBL_Data_Neisseria_g: Qualifier_for_MIC_Ng>
=

> <ChEMBL_Data_Neisseria_g: ASSAY_CHEMBLID>
CHEMBL1101425

> <ChEMBL_Data_Neisseria_g: DESCRIPTION_of_Assay_Ng>
Antibacterial activity against Neisseria gonorrhoeae ATCC 49226 by broth microdilution assay

> <ChEMBL_Data_Neisseria_g: PUBMED_ID>
19919060

> <ChEMBL_Data_Neisseria_g: YEAR>
2010

> <ChEMBL_Data_Neisseria_g: JOURNAL>
J. Nat. Prod.

> <ChEMBL_Data_Neisseria_g: VOLUME>
73

> <ChEMBL_Data_Neisseria_g: FIRST_PAGE>
388

> <ChEMBL_Data_Neisseria_g: MIC_vs_Neisseria_microg_per_mL>
32

> <ALogP>
1.996

> <Active>
0

> <Molecular_Weight>
234.334

> <ChEMBL_Data_Neisseria_g: STRAIN_of_Ng>
ATCC 49226

$$$$

Generated by Molecular Materials Informatics

 17 17  0  0  0  0  0  0  0  0999 V2000
   -0.8769    4.5000    0.0000 C   0  0  0  0  0  0  0  0  0  0  0  0
    0.4222    3.7500    0.0000 O   0  0  0  0  0  0  0  0  0  0  0  0
    0.4222    2.2500    0.0000 C   0  0  0  0  0  0  0  0  0  0  0  0
    1.7211    1.5000    0.0000 C   0  0  0  0  0  0  0  0  0  0  0  0
    1.7211    0.0000    0.0000 C   0  0  0  0  0  0  0  0  0  0  0  0
    3.0202   -0.7500    0.0000 C   0  0  0  0  0  0  0  0  0  0  0  0
    3.0202   -2.2500    0.0000 C   0  0  0  0  0  0  0  0  0  0  0  0
    4.3193   -3.0000    0.0000 N   0  4  0  0  0  0  0  0  0  0  0  0
    4.3193   -4.5000    0.0000 O   0  0  0  0  0  0  0  0  0  0  0  0
    5.6184   -2.2500    0.0000 O   0  5  0  0  0  0  0  0  0  0  0  0
    0.4222   -0.7500    0.0000 C   0  0  0  0  0  0  0  0  0  0  0  0
   -0.8769    0.0000    0.0000 C   0  0  0  0  0  0  0  0  0  0  0  0
   -2.1760   -0.7500    0.0000 O   0  0  0  0  0  0  0  0  0  0  0  0
   -3.4749    0.0000    0.0000 C   0  0  0  0  0  0  0  0  0  0  0  0
   -0.8769    1.5000    0.0000 C   0  0  0  0  0  0  0  0  0  0  0  0
   -2.1760    2.2500    0.0000 O   0  0  0  0  0  0  0  0  0  0  0  0
   -3.4749    1.5000    0.0000 C   0  0  0  0  0  0  0  0  0  0  0  0
  1  2  1  0  0  0  0
  2  3  1  0  0  0  0
  3  4  2  0  0  0  0
  4  5  1  0  0  0  0
  5  6  1  0  0  0  0
  6  7  2  0  0  0  0
  7  8  1  0  0  0  0
  8  9  2  0  0  0  0
  8 10  1  0  0  0  0
  5 11  2  0  0  0  0
 11 12  1  0  0  0  0
 12 13  1  0  0  0  0
 13 14  1  0  0  0  0
 12 15  2  0  0  0  0
  3 15  1  0  0  0  0
 15 16  1  0  0  0  0
 16 17  1  0  0  0  0
M  CHG  1  10  -1
M  RAD  1   8   2
M  END
> <Molecule Name>
CHEMBL611950

> <IUPAC>
{hydroxy[(E)-2-(3,4,5-trimethoxyphenyl)ethenyl]amino}oxidanyl

> <ChEMBL_Data_Neisseria_g: NUM_RO5_VIOLATIONS>
0

> <ChEMBL_Data_Neisseria_g: Qualifier_for_MIC_Ng>
=

> <ChEMBL_Data_Neisseria_g: ASSAY_CHEMBLID>
CHEMBL1073951

> <ChEMBL_Data_Neisseria_g: DESCRIPTION_of_Assay_Ng>
Antimicrobial activity against Neisseria gonorrhoeae ATCC 49226 by broth microdilution susceptibility assay

> <ChEMBL_Data_Neisseria_g: PUBMED_ID>
19709889

> <ChEMBL_Data_Neisseria_g: YEAR>
2009

> <ChEMBL_Data_Neisseria_g: JOURNAL>
Bioorg. Med. Chem.

> <ChEMBL_Data_Neisseria_g: VOLUME>
17

> <ChEMBL_Data_Neisseria_g: FIRST_PAGE>
6606

> <ChEMBL_Data_Neisseria_g: MIC_vs_Neisseria_microg_per_mL>
4

> <ALogP>
1.76

> <Active>
1

> <Molecular_Weight>
239.225

> <ChEMBL_Data_Neisseria_g: STRAIN_of_Ng>
ATCC 49226

$$$$

Generated by Molecular Materials Informatics

 14 14  0  0  0  0  0  0  0  0999 V2000
    0.5243   -2.4047    0.0000 C   0  0  0  0  0  0  0  0  0  0  0  0
   -0.5904   -1.4011    0.0000 N   0  0  0  0  0  0  0  0  0  0  0  0
   -2.0576   -1.7129    0.0000 C   0  0  0  0  0  0  0  0  0  0  0  0
   -2.8076   -0.4138    0.0000 C   0  0  0  0  0  0  0  0  0  0  0  0
   -1.8040    0.7009    0.0000 N   0  0  0  0  0  0  0  0  0  0  0  0
   -0.4336    0.0907    0.0000 C   0  0  0  0  0  0  0  0  0  0  0  0
    0.8654    0.8407    0.0000 S   0  0  0  0  0  0  0  0  0  0  0  0
    2.1643    0.0907    0.0000 C   0  0  0  0  0  0  0  0  0  0  0  0
    3.4633    0.8407    0.0000 C   0  0  0  0  0  0  0  0  0  0  0  0
    4.7624    0.0907    0.0000 C   0  0  0  0  0  0  0  0  0  0  0  0
    6.0614    0.8407    0.0000 C   0  0  0  0  0  0  0  0  0  0  0  0
    7.3603    0.0907    0.0000 C   0  0  0  0  0  0  0  0  0  0  0  0
    8.6594    0.8407    0.0000 O   0  0  0  0  0  0  0  0  0  0  0  0
    7.3603   -1.4093    0.0000 O   0  0  0  0  0  0  0  0  0  0  0  0
  1  2  1  0  0  0  0
  2  3  1  0  0  0  0
  3  4  2  0  0  0  0
  4  5  1  0  0  0  0
  5  6  2  0  0  0  0
  2  6  1  0  0  0  0
  6  7  1  0  0  0  0
  7  8  1  0  0  0  0
  8  9  1  0  0  0  0
  9 10  1  0  0  0  0
 10 11  1  0  0  0  0
 11 12  1  0  0  0  0
 12 13  2  0  0  0  0
 12 14  1  0  0  0  0
M  END
> <Molecule Name>
CHEMBL611678

> <IUPAC>
5-[(1-methyl-1H-imidazol-2-yl)sulfanyl]pentanoic acid

> <ChEMBL_Data_Neisseria_g: NUM_RO5_VIOLATIONS>
0

> <ChEMBL_Data_Neisseria_g: Qualifier_for_MIC_Ng>
>

> <ChEMBL_Data_Neisseria_g: ASSAY_CHEMBLID>
CHEMBL3283002

> <ChEMBL_Data_Neisseria_g: DESCRIPTION_of_Assay_Ng>
Antibacterial activity against Neisseria gonorrhoeae ATCC 19424 after 48 hrs by ten-fold serial dilution method

> <ChEMBL_Data_Neisseria_g: PUBMED_ID>
412966

> <ChEMBL_Data_Neisseria_g: YEAR>
1977

> <ChEMBL_Data_Neisseria_g: JOURNAL>
J. Med. Chem.

> <ChEMBL_Data_Neisseria_g: VOLUME>
20

> <ChEMBL_Data_Neisseria_g: FIRST_PAGE>
1697

> <ChEMBL_Data_Neisseria_g: MIC_vs_Neisseria_microg_per_mL>
100

> <ALogP>
1.513

> <Active>
0

> <Molecular_Weight>
214.285

> <ChEMBL_Data_Neisseria_g: STRAIN_of_Ng>
ATCC 19424

$$$$

Generated by Molecular Materials Informatics

 14 15  0  0  0  0  0  0  0  0999 V2000
    6.1774    5.9291    0.0000 O   0  5  0  0  0  0  0  0  0  0  0  0
    6.1774    4.4292    0.0000 N   0  4  0  0  0  0  0  0  0  0  0  0
    7.4765    3.6792    0.0000 O   0  0  0  0  0  0  0  0  0  0  0  0
    4.8785    3.6792    0.0000 C   0  0  0  0  0  0  0  0  0  0  0  0
    4.8785    2.1791    0.0000 C   0  0  0  0  0  0  0  0  0  0  0  0
    3.5794    1.4292    0.0000 C   0  0  0  0  0  0  0  0  0  0  0  0
    3.5794   -0.0708    0.0000 C   0  0  0  0  0  0  0  0  0  0  0  0
    2.2803   -0.8208    0.0000 C   0  0  0  0  0  0  0  0  0  0  0  0
    0.9812   -0.0708    0.0000 C   0  0  0  0  0  0  0  0  0  0  0  0
   -0.4453   -0.5343    0.0000 O   0  0  0  0  0  0  0  0  0  0  0  0
   -1.3270    0.6792    0.0000 C   0  0  0  0  0  0  0  0  0  0  0  0
   -0.4453    1.8928    0.0000 O   0  0  0  0  0  0  0  0  0  0  0  0
    0.9812    1.4292    0.0000 C   0  0  0  0  0  0  0  0  0  0  0  0
    2.2803    2.1791    0.0000 C   0  0  0  0  0  0  0  0  0  0  0  0
  1  2  1  0  0  0  0
  2  3  2  0  0  0  0
  2  4  1  0  0  0  0
  4  5  2  0  0  0  0
  5  6  1  0  0  0  0
  6  7  2  0  0  0  0
  7  8  1  0  0  0  0
  8  9  2  0  0  0  0
  9 10  1  0  0  0  0
 10 11  1  0  0  0  0
 11 12  1  0  0  0  0
 12 13  1  0  0  0  0
  9 13  1  0  0  0  0
 13 14  2  0  0  0  0
  6 14  1  0  0  0  0
M  CHG  1   1  -1
M  RAD  1   2   2
M  END
> <Molecule Name>
CHEMBL596380

> <IUPAC>
{[(E)-2-(2H-1,3-benzodioxol-5-yl)ethenyl](hydroxy)amino}oxidanyl

> <ChEMBL_Data_Neisseria_g: NUM_RO5_VIOLATIONS>
0

> <ChEMBL_Data_Neisseria_g: Qualifier_for_MIC_Ng>
=

> <ChEMBL_Data_Neisseria_g: ASSAY_CHEMBLID>
CHEMBL1073951

> <ChEMBL_Data_Neisseria_g: DESCRIPTION_of_Assay_Ng>
Antimicrobial activity against Neisseria gonorrhoeae ATCC 49226 by broth microdilution susceptibility assay

> <ChEMBL_Data_Neisseria_g: PUBMED_ID>
19709889

> <ChEMBL_Data_Neisseria_g: YEAR>
2009

> <ChEMBL_Data_Neisseria_g: JOURNAL>
Bioorg. Med. Chem.

> <ChEMBL_Data_Neisseria_g: VOLUME>
17

> <ChEMBL_Data_Neisseria_g: FIRST_PAGE>
6606

> <ChEMBL_Data_Neisseria_g: MIC_vs_Neisseria_microg_per_mL>
1

> <ALogP>
1.578

> <Active>
1

> <Molecular_Weight>
193.156

> <ChEMBL_Data_Neisseria_g: STRAIN_of_Ng>
ATCC 49226

$$$$

Generated by Molecular Materials Informatics

 16 17  0  0  0  0  0  0  0  0999 V2000
    1.6225    4.5000    0.0000 C   0  0  0  0  0  0  0  0  0  0  0  0
    2.9214    3.7500    0.0000 O   0  0  0  0  0  0  0  0  0  0  0  0
    2.9214    2.2500    0.0000 C   0  0  0  0  0  0  0  0  0  0  0  0
    4.2205    1.5000    0.0000 C   0  0  0  0  0  0  0  0  0  0  0  0
    4.2205    0.0000    0.0000 C   0  0  0  0  0  0  0  0  0  0  0  0
    5.5196   -0.7500    0.0000 C   0  0  0  0  0  0  0  0  0  0  0  0
    5.5196   -2.2500    0.0000 C   0  0  0  0  0  0  0  0  0  0  0  0
    6.8185   -3.0000    0.0000 N   0  4  0  0  0  0  0  0  0  0  0  0
    8.1176   -2.2500    0.0000 O   0  0  0  0  0  0  0  0  0  0  0  0
    6.8185   -4.5000    0.0000 O   0  5  0  0  0  0  0  0  0  0  0  0
    2.9214   -0.7500    0.0000 C   0  0  0  0  0  0  0  0  0  0  0  0
    1.6225    0.0000    0.0000 C   0  0  0  0  0  0  0  0  0  0  0  0
    0.1958   -0.4635    0.0000 O   0  0  0  0  0  0  0  0  0  0  0  0
   -0.6859    0.7500    0.0000 C   0  0  0  0  0  0  0  0  0  0  0  0
    0.1958    1.9635    0.0000 O   0  0  0  0  0  0  0  0  0  0  0  0
    1.6225    1.5000    0.0000 C   0  0  0  0  0  0  0  0  0  0  0  0
  1  2  1  0  0  0  0
  2  3  1  0  0  0  0
  3  4  2  0  0  0  0
  4  5  1  0  0  0  0
  5  6  1  0  0  0  0
  6  7  2  0  0  0  0
  7  8  1  0  0  0  0
  8  9  2  0  0  0  0
  8 10  1  0  0  0  0
  5 11  2  0  0  0  0
 11 12  1  0  0  0  0
 12 13  1  0  0  0  0
 13 14  1  0  0  0  0
 14 15  1  0  0  0  0
 15 16  1  0  0  0  0
  3 16  1  0  0  0  0
 12 16  2  0  0  0  0
M  CHG  1  10  -1
M  RAD  1   8   2
M  END
> <Molecule Name>
CHEMBL596259

> <IUPAC>
{hydroxy[(E)-2-(7-methoxy-2H-1,3-benzodioxol-5-yl)ethenyl]amino}oxidanyl

> <ChEMBL_Data_Neisseria_g: NUM_RO5_VIOLATIONS>
0

> <ChEMBL_Data_Neisseria_g: Qualifier_for_MIC_Ng>
>

> <ChEMBL_Data_Neisseria_g: ASSAY_CHEMBLID>
CHEMBL1073951

> <ChEMBL_Data_Neisseria_g: DESCRIPTION_of_Assay_Ng>
Antimicrobial activity against Neisseria gonorrhoeae ATCC 49226 by broth microdilution susceptibility assay

> <ChEMBL_Data_Neisseria_g: PUBMED_ID>
19709889

> <ChEMBL_Data_Neisseria_g: YEAR>
2009

> <ChEMBL_Data_Neisseria_g: JOURNAL>
Bioorg. Med. Chem.

> <ChEMBL_Data_Neisseria_g: VOLUME>
17

> <ChEMBL_Data_Neisseria_g: FIRST_PAGE>
6606

> <ChEMBL_Data_Neisseria_g: MIC_vs_Neisseria_microg_per_mL>
64

> <ALogP>
1.561

> <Active>
0

> <Molecular_Weight>
223.182

> <ChEMBL_Data_Neisseria_g: STRAIN_of_Ng>
ATCC 49226

$$$$

Generated by Molecular Materials Informatics

 21 22  0  0  0  0  0  0  0  0999 V2000
    0.7145    0.7875    0.0000 C   0  0  0  0  0  0  0  0  0  0  0  0
    2.0134    0.0375    0.0000 O   0  0  0  0  0  0  0  0  0  0  0  0
    2.0134   -1.4625    0.0000 C   0  0  0  0  0  0  0  0  0  0  0  0
    3.3125   -2.2125    0.0000 C   0  0  0  0  0  0  0  0  0  0  0  0
    3.3125   -3.7125    0.0000 C   0  0  0  0  0  0  0  0  0  0  0  0
    4.6116   -4.4625    0.0000 C   0  0  0  0  0  0  0  0  0  0  0  0
    4.6116   -5.9625    0.0000 C   0  0  0  0  0  0  0  0  0  0  0  0
    5.9107   -6.7125    0.0000 N   0  4  0  0  0  0  0  0  0  0  0  0
    5.9107   -8.2125    0.0000 O   0  0  0  0  0  0  0  0  0  0  0  0
    7.2096   -5.9625    0.0000 O   0  5  0  0  0  0  0  0  0  0  0  0
    2.0134   -4.4625    0.0000 C   0  0  0  0  0  0  0  0  0  0  0  0
    0.7145   -3.7125    0.0000 C   0  0  0  0  0  0  0  0  0  0  0  0
    0.7145   -2.2125    0.0000 C   0  0  0  0  0  0  0  0  0  0  0  0
   -0.5845   -1.4625    0.0000 O   0  0  0  0  0  0  0  0  0  0  0  0
   -1.8836   -2.2125    0.0000 C   0  0  0  0  0  0  0  0  0  0  0  0
   -3.1825   -1.4625    0.0000 C   0  0  0  0  0  0  0  0  0  0  0  0
   -4.4816   -2.2125    0.0000 C   0  0  0  0  0  0  0  0  0  0  0  0
   -5.7807   -1.4625    0.0000 C   0  0  0  0  0  0  0  0  0  0  0  0
   -5.7807    0.0375    0.0000 C   0  0  0  0  0  0  0  0  0  0  0  0
   -4.4816    0.7875    0.0000 C   0  0  0  0  0  0  0  0  0  0  0  0
   -3.1825    0.0375    0.0000 C   0  0  0  0  0  0  0  0  0  0  0  0
  1  2  1  0  0  0  0
  2  3  1  0  0  0  0
  3  4  2  0  0  0  0
  4  5  1  0  0  0  0
  5  6  1  0  0  0  0
  6  7  2  0  0  0  0
  7  8  1  0  0  0  0
  8  9  2  0  0  0  0
  8 10  1  0  0  0  0
  5 11  2  0  0  0  0
 11 12  1  0  0  0  0
 12 13  2  0  0  0  0
  3 13  1  0  0  0  0
 13 14  1  0  0  0  0
 14 15  1  0  0  0  0
 15 16  1  0  0  0  0
 16 17  2  0  0  0  0
 17 18  1  0  0  0  0
 18 19  2  0  0  0  0
 19 20  1  0  0  0  0
 20 21  2  0  0  0  0
 16 21  1  0  0  0  0
M  CHG  1  10  -1
M  RAD  1   8   2
M  END
> <Molecule Name>
CHEMBL594878

> <IUPAC>
{[(E)-2-[4-(benzyloxy)-3-methoxyphenyl]ethenyl](hydroxy)amino}oxidanyl

> <ChEMBL_Data_Neisseria_g: NUM_RO5_VIOLATIONS>
0

> <ChEMBL_Data_Neisseria_g: Qualifier_for_MIC_Ng>
=

> <ChEMBL_Data_Neisseria_g: ASSAY_CHEMBLID>
CHEMBL1073951

> <ChEMBL_Data_Neisseria_g: DESCRIPTION_of_Assay_Ng>
Antimicrobial activity against Neisseria gonorrhoeae ATCC 49226 by broth microdilution susceptibility assay

> <ChEMBL_Data_Neisseria_g: PUBMED_ID>
19709889

> <ChEMBL_Data_Neisseria_g: YEAR>
2009

> <ChEMBL_Data_Neisseria_g: JOURNAL>
Bioorg. Med. Chem.

> <ChEMBL_Data_Neisseria_g: VOLUME>
17

> <ChEMBL_Data_Neisseria_g: FIRST_PAGE>
6606

> <ChEMBL_Data_Neisseria_g: MIC_vs_Neisseria_microg_per_mL>
1

> <ALogP>
3.36

> <Active>
1

> <Molecular_Weight>
285.295

> <ChEMBL_Data_Neisseria_g: STRAIN_of_Ng>
ATCC 49226

$$$$

Generated by Molecular Materials Informatics

 16 16  0  0  0  0  0  0  0  0999 V2000
   -0.8769    4.4999    0.0000 C   0  0  0  0  0  0  0  0  0  0  0  0
    0.4222    3.7499    0.0000 O   0  0  0  0  0  0  0  0  0  0  0  0
    0.4222    2.2500    0.0000 C   0  0  0  0  0  0  0  0  0  0  0  0
    1.7211    1.5000    0.0000 C   0  0  0  0  0  0  0  0  0  0  0  0
    1.7211    0.0000    0.0000 C   0  0  0  0  0  0  0  0  0  0  0  0
    3.0202   -0.7500    0.0000 C   0  0  0  0  0  0  0  0  0  0  0  0
    3.0202   -2.2500    0.0000 C   0  0  0  0  0  0  0  0  0  0  0  0
    4.3192   -3.0000    0.0000 N   0  4  0  0  0  0  0  0  0  0  0  0
    5.6183   -2.2500    0.0000 O   0  0  0  0  0  0  0  0  0  0  0  0
    4.3192   -4.4999    0.0000 O   0  5  0  0  0  0  0  0  0  0  0  0
    0.4222   -0.7500    0.0000 C   0  0  0  0  0  0  0  0  0  0  0  0
   -0.8769    0.0000    0.0000 C   0  0  0  0  0  0  0  0  0  0  0  0
   -2.1759   -0.7500    0.0000 O   0  0  0  0  0  0  0  0  0  0  0  0
   -3.4748    0.0000    0.0000 C   0  0  0  0  0  0  0  0  0  0  0  0
   -0.8769    1.5000    0.0000 C   0  0  0  0  0  0  0  0  0  0  0  0
   -2.1759    2.2500    0.0000 O   0  0  0  0  0  0  0  0  0  0  0  0
  1  2  1  0  0  0  0
  2  3  1  0  0  0  0
  3  4  2  0  0  0  0
  4  5  1  0  0  0  0
  5  6  1  0  0  0  0
  6  7  2  0  0  0  0
  7  8  1  0  0  0  0
  8  9  2  0  0  0  0
  8 10  1  0  0  0  0
  5 11  2  0  0  0  0
 11 12  1  0  0  0  0
 12 13  1  0  0  0  0
 13 14  1  0  0  0  0
 12 15  2  0  0  0  0
  3 15  1  0  0  0  0
 15 16  1  0  0  0  0
M  CHG  1  10  -1
M  RAD  1   8   2
M  END
> <Molecule Name>
CHEMBL594877

> <IUPAC>
{hydroxy[(E)-2-(4-hydroxy-3,5-dimethoxyphenyl)ethenyl]amino}oxidanyl

> <ChEMBL_Data_Neisseria_g: NUM_RO5_VIOLATIONS>
0

> <ChEMBL_Data_Neisseria_g: Qualifier_for_MIC_Ng>
=

> <ChEMBL_Data_Neisseria_g: ASSAY_CHEMBLID>
CHEMBL1073951

> <ChEMBL_Data_Neisseria_g: DESCRIPTION_of_Assay_Ng>
Antimicrobial activity against Neisseria gonorrhoeae ATCC 49226 by broth microdilution susceptibility assay

> <ChEMBL_Data_Neisseria_g: PUBMED_ID>
19709889

> <ChEMBL_Data_Neisseria_g: YEAR>
2009

> <ChEMBL_Data_Neisseria_g: JOURNAL>
Bioorg. Med. Chem.

> <ChEMBL_Data_Neisseria_g: VOLUME>
17

> <ChEMBL_Data_Neisseria_g: FIRST_PAGE>
6606

> <ChEMBL_Data_Neisseria_g: MIC_vs_Neisseria_microg_per_mL>
4

> <ALogP>
1.535

> <Active>
1

> <Molecular_Weight>
225.198

> <ChEMBL_Data_Neisseria_g: STRAIN_of_Ng>
ATCC 49226

$$$$

Generated by Molecular Materials Informatics

 14 15  0  0  0  0  0  0  0  0999 V2000
   -2.7594   -4.4899    0.0000 O   0  5  0  0  0  0  0  0  0  0  0  0
   -1.2922   -4.1781    0.0000 N   0  4  0  0  0  0  0  0  0  0  0  0
   -0.2885   -5.2926    0.0000 O   0  0  0  0  0  0  0  0  0  0  0  0
   -0.8287   -2.7514    0.0000 C   0  0  0  0  0  0  0  0  0  0  0  0
    0.6385   -2.4396    0.0000 C   0  0  0  0  0  0  0  0  0  0  0  0
    1.1020   -1.0131    0.0000 C   0  0  0  0  0  0  0  0  0  0  0  0
    0.2204    0.2005    0.0000 C   0  0  0  0  0  0  0  0  0  0  0  0
    1.1020    1.4140    0.0000 N   0  0  0  0  0  0  0  0  0  0  0  0
    2.5285    0.9505    0.0000 C   0  0  0  0  0  0  0  0  0  0  0  0
    3.8275    1.7005    0.0000 C   0  0  0  0  0  0  0  0  0  0  0  0
    5.1266    0.9505    0.0000 C   0  0  0  0  0  0  0  0  0  0  0  0
    5.1266   -0.5494    0.0000 C   0  0  0  0  0  0  0  0  0  0  0  0
    3.8275   -1.2994    0.0000 C   0  0  0  0  0  0  0  0  0  0  0  0
    2.5285   -0.5494    0.0000 C   0  0  0  0  0  0  0  0  0  0  0  0
  1  2  1  0  0  0  0
  2  3  2  0  0  0  0
  2  4  1  0  0  0  0
  4  5  2  0  0  0  0
  5  6  1  0  0  0  0
  6  7  2  0  0  0  0
  7  8  1  0  0  0  0
  8  9  1  0  0  0  0
  9 10  2  0  0  0  0
 10 11  1  0  0  0  0
 11 12  2  0  0  0  0
 12 13  1  0  0  0  0
 13 14  2  0  0  0  0
  6 14  1  0  0  0  0
  9 14  1  0  0  0  0
M  CHG  1   1  -1
M  RAD  1   2   2
M  END
> <Molecule Name>
CHEMBL594624

> <IUPAC>
{hydroxy[(E)-2-(1H-indol-3-yl)ethenyl]amino}oxidanyl

> <ChEMBL_Data_Neisseria_g: NUM_RO5_VIOLATIONS>
0

> <ChEMBL_Data_Neisseria_g: Qualifier_for_MIC_Ng>
=

> <ChEMBL_Data_Neisseria_g: ASSAY_CHEMBLID>
CHEMBL1073951

> <ChEMBL_Data_Neisseria_g: DESCRIPTION_of_Assay_Ng>
Antimicrobial activity against Neisseria gonorrhoeae ATCC 49226 by broth microdilution susceptibility assay

> <ChEMBL_Data_Neisseria_g: PUBMED_ID>
19709889

> <ChEMBL_Data_Neisseria_g: YEAR>
2009

> <ChEMBL_Data_Neisseria_g: JOURNAL>
Bioorg. Med. Chem.

> <ChEMBL_Data_Neisseria_g: VOLUME>
17

> <ChEMBL_Data_Neisseria_g: FIRST_PAGE>
6606

> <ChEMBL_Data_Neisseria_g: MIC_vs_Neisseria_microg_per_mL>
8

> <ALogP>
2.103

> <Active>
1

> <Molecular_Weight>
188.183

> <ChEMBL_Data_Neisseria_g: STRAIN_of_Ng>
ATCC 49226

$$$$

Generated by Molecular Materials Informatics

 15 15  0  0  0  0  0  0  0  0999 V2000
   -0.2923    4.6687    0.0000 C   0  0  0  0  0  0  0  0  0  0  0  0
    1.0068    3.9187    0.0000 O   0  0  0  0  0  0  0  0  0  0  0  0
    1.0068    2.4187    0.0000 C   0  0  0  0  0  0  0  0  0  0  0  0
    2.3057    1.6687    0.0000 C   0  0  0  0  0  0  0  0  0  0  0  0
    2.3057    0.1688    0.0000 C   0  0  0  0  0  0  0  0  0  0  0  0
    1.0068   -0.5812    0.0000 C   0  0  0  0  0  0  0  0  0  0  0  0
    1.0068   -2.0812    0.0000 C   0  0  0  0  0  0  0  0  0  0  0  0
   -0.2923   -2.8312    0.0000 C   0  0  0  0  0  0  0  0  0  0  0  0
   -0.2923   -4.3312    0.0000 N   0  4  0  0  0  0  0  0  0  0  0  0
    1.0068   -5.0813    0.0000 O   0  0  0  0  0  0  0  0  0  0  0  0
   -1.5913   -5.0813    0.0000 O   0  5  0  0  0  0  0  0  0  0  0  0
   -0.2923    0.1688    0.0000 C   0  0  0  0  0  0  0  0  0  0  0  0
   -0.2923    1.6687    0.0000 C   0  0  0  0  0  0  0  0  0  0  0  0
   -1.5913    2.4187    0.0000 O   0  0  0  0  0  0  0  0  0  0  0  0
   -1.5913    3.9187    0.0000 C   0  0  0  0  0  0  0  0  0  0  0  0
  1  2  1  0  0  0  0
  2  3  1  0  0  0  0
  3  4  2  0  0  0  0
  4  5  1  0  0  0  0
  5  6  2  0  0  0  0
  6  7  1  0  0  0  0
  7  8  2  0  0  0  0
  8  9  1  0  0  0  0
  9 10  2  0  0  0  0
  9 11  1  0  0  0  0
  6 12  1  0  0  0  0
 12 13  2  0  0  0  0
  3 13  1  0  0  0  0
 13 14  1  0  0  0  0
 14 15  1  0  0  0  0
M  CHG  1  11  -1
M  RAD  1   9   2
M  END
> <Molecule Name>
CHEMBL594404

> <IUPAC>
{[(E)-2-(3,4-dimethoxyphenyl)ethenyl](hydroxy)amino}oxidanyl

> <ChEMBL_Data_Neisseria_g: NUM_RO5_VIOLATIONS>
0

> <ChEMBL_Data_Neisseria_g: Qualifier_for_MIC_Ng>
=

> <ChEMBL_Data_Neisseria_g: ASSAY_CHEMBLID>
CHEMBL1073951

> <ChEMBL_Data_Neisseria_g: DESCRIPTION_of_Assay_Ng>
Antimicrobial activity against Neisseria gonorrhoeae ATCC 49226 by broth microdilution susceptibility assay

> <ChEMBL_Data_Neisseria_g: PUBMED_ID>
19709889

> <ChEMBL_Data_Neisseria_g: YEAR>
2009

> <ChEMBL_Data_Neisseria_g: JOURNAL>
Bioorg. Med. Chem.

> <ChEMBL_Data_Neisseria_g: VOLUME>
17

> <ChEMBL_Data_Neisseria_g: FIRST_PAGE>
6606

> <ChEMBL_Data_Neisseria_g: MIC_vs_Neisseria_microg_per_mL>
4

> <ALogP>
1.777

> <Active>
1

> <Molecular_Weight>
209.199

> <ChEMBL_Data_Neisseria_g: STRAIN_of_Ng>
ATCC 49226

$$$$

Generated by Molecular Materials Informatics

 15 15  0  0  0  0  0  0  0  0999 V2000
    2.8903    3.9938    0.0000 C   0  0  0  0  0  0  0  0  0  0  0  0
    1.5914    3.2438    0.0000 O   0  0  0  0  0  0  0  0  0  0  0  0
    1.5914    1.7437    0.0000 C   0  0  0  0  0  0  0  0  0  0  0  0
    2.8903    0.9937    0.0000 C   0  0  0  0  0  0  0  0  0  0  0  0
    2.8903   -0.5063    0.0000 C   0  0  0  0  0  0  0  0  0  0  0  0
    4.1894   -1.2563    0.0000 O   0  0  0  0  0  0  0  0  0  0  0  0
    4.1894   -2.7562    0.0000 C   0  0  0  0  0  0  0  0  0  0  0  0
    1.5914   -1.2563    0.0000 C   0  0  0  0  0  0  0  0  0  0  0  0
    0.2923   -0.5063    0.0000 C   0  0  0  0  0  0  0  0  0  0  0  0
   -1.0068   -1.2563    0.0000 C   0  0  0  0  0  0  0  0  0  0  0  0
   -2.3057   -0.5063    0.0000 C   0  0  0  0  0  0  0  0  0  0  0  0
   -3.6048   -1.2563    0.0000 N   0  4  0  0  0  0  0  0  0  0  0  0
   -3.6048   -2.7562    0.0000 O   0  0  0  0  0  0  0  0  0  0  0  0
   -4.9039   -0.5063    0.0000 O   0  5  0  0  0  0  0  0  0  0  0  0
    0.2923    0.9937    0.0000 C   0  0  0  0  0  0  0  0  0  0  0  0
  1  2  1  0  0  0  0
  2  3  1  0  0  0  0
  3  4  2  0  0  0  0
  4  5  1  0  0  0  0
  5  6  1  0  0  0  0
  6  7  1  0  0  0  0
  5  8  2  0  0  0  0
  8  9  1  0  0  0  0
  9 10  1  0  0  0  0
 10 11  2  0  0  0  0
 11 12  1  0  0  0  0
 12 13  2  0  0  0  0
 12 14  1  0  0  0  0
  9 15  2  0  0  0  0
  3 15  1  0  0  0  0
M  CHG  1  14  -1
M  RAD  1  12   2
M  END
> <Molecule Name>
CHEMBL594392

> <IUPAC>
{[(E)-2-(3,5-dimethoxyphenyl)ethenyl](hydroxy)amino}oxidanyl

> <ChEMBL_Data_Neisseria_g: NUM_RO5_VIOLATIONS>
0

> <ChEMBL_Data_Neisseria_g: Qualifier_for_MIC_Ng>
=

> <ChEMBL_Data_Neisseria_g: ASSAY_CHEMBLID>
CHEMBL1073951

> <ChEMBL_Data_Neisseria_g: DESCRIPTION_of_Assay_Ng>
Antimicrobial activity against Neisseria gonorrhoeae ATCC 49226 by broth microdilution susceptibility assay

> <ChEMBL_Data_Neisseria_g: PUBMED_ID>
19709889

> <ChEMBL_Data_Neisseria_g: YEAR>
2009

> <ChEMBL_Data_Neisseria_g: JOURNAL>
Bioorg. Med. Chem.

> <ChEMBL_Data_Neisseria_g: VOLUME>
17

> <ChEMBL_Data_Neisseria_g: FIRST_PAGE>
6606

> <ChEMBL_Data_Neisseria_g: MIC_vs_Neisseria_microg_per_mL>
2

> <ALogP>
1.777

> <Active>
1

> <Molecular_Weight>
209.199

> <ChEMBL_Data_Neisseria_g: STRAIN_of_Ng>
ATCC 49226

$$$$

Generated by Molecular Materials Informatics

 14 14  0  0  0  0  0  0  0  0999 V2000
   -0.2922    4.6687    0.0000 C   0  0  0  0  0  0  0  0  0  0  0  0
    1.0068    3.9187    0.0000 O   0  0  0  0  0  0  0  0  0  0  0  0
    1.0068    2.4187    0.0000 C   0  0  0  0  0  0  0  0  0  0  0  0
    2.3057    1.6687    0.0000 C   0  0  0  0  0  0  0  0  0  0  0  0
    2.3057    0.1687    0.0000 C   0  0  0  0  0  0  0  0  0  0  0  0
    1.0068   -0.5812    0.0000 C   0  0  0  0  0  0  0  0  0  0  0  0
    1.0068   -2.0812    0.0000 C   0  0  0  0  0  0  0  0  0  0  0  0
   -0.2922   -2.8312    0.0000 C   0  0  0  0  0  0  0  0  0  0  0  0
   -0.2922   -4.3312    0.0000 N   0  4  0  0  0  0  0  0  0  0  0  0
    1.0068   -5.0812    0.0000 O   0  0  0  0  0  0  0  0  0  0  0  0
   -1.5913   -5.0812    0.0000 O   0  5  0  0  0  0  0  0  0  0  0  0
   -0.2922    0.1687    0.0000 C   0  0  0  0  0  0  0  0  0  0  0  0
   -0.2922    1.6687    0.0000 C   0  0  0  0  0  0  0  0  0  0  0  0
   -1.5913    2.4187    0.0000 O   0  0  0  0  0  0  0  0  0  0  0  0
  1  2  1  0  0  0  0
  2  3  1  0  0  0  0
  3  4  2  0  0  0  0
  4  5  1  0  0  0  0
  5  6  2  0  0  0  0
  6  7  1  0  0  0  0
  7  8  2  0  0  0  0
  8  9  1  0  0  0  0
  9 10  2  0  0  0  0
  9 11  1  0  0  0  0
  6 12  1  0  0  0  0
 12 13  2  0  0  0  0
  3 13  1  0  0  0  0
 13 14  1  0  0  0  0
M  CHG  1  11  -1
M  RAD  1   9   2
M  END
> <Molecule Name>
CHEMBL594180

> <IUPAC>
{hydroxy[(E)-2-(3-hydroxy-4-methoxyphenyl)ethenyl]amino}oxidanyl

> <ChEMBL_Data_Neisseria_g: NUM_RO5_VIOLATIONS>
0

> <ChEMBL_Data_Neisseria_g: Qualifier_for_MIC_Ng>
=

> <ChEMBL_Data_Neisseria_g: ASSAY_CHEMBLID>
CHEMBL1073951

> <ChEMBL_Data_Neisseria_g: DESCRIPTION_of_Assay_Ng>
Antimicrobial activity against Neisseria gonorrhoeae ATCC 49226 by broth microdilution susceptibility assay

> <ChEMBL_Data_Neisseria_g: PUBMED_ID>
19709889

> <ChEMBL_Data_Neisseria_g: YEAR>
2009

> <ChEMBL_Data_Neisseria_g: JOURNAL>
Bioorg. Med. Chem.

> <ChEMBL_Data_Neisseria_g: VOLUME>
17

> <ChEMBL_Data_Neisseria_g: FIRST_PAGE>
6606

> <ChEMBL_Data_Neisseria_g: MIC_vs_Neisseria_microg_per_mL>
4

> <ALogP>
1.551

> <Active>
1

> <Molecular_Weight>
195.172

> <ChEMBL_Data_Neisseria_g: STRAIN_of_Ng>
ATCC 49226

$$$$

Generated by Molecular Materials Informatics

 38 42  0  0  0  0  0  0  0  0999 V2000
   -8.2164    3.4313    0.0000 C   0  0  0  0  0  0  0  0  0  0  0  0
   -6.9173    2.6813    0.0000 O   0  0  0  0  0  0  0  0  0  0  0  0
   -6.9173    1.1812    0.0000 C   0  0  0  0  0  0  0  0  0  0  0  0
   -5.6184    0.4312    0.0000 C   0  0  0  0  0  0  0  0  0  0  0  0
   -5.6184   -1.0687    0.0000 C   0  0  0  0  0  0  0  0  0  0  0  0
   -6.9173   -1.8187    0.0000 C   0  0  0  0  0  0  0  0  0  0  0  0
   -8.2164   -1.0687    0.0000 C   0  0  0  0  0  0  0  0  0  0  0  0
   -9.5155   -1.8187    0.0000 O   0  0  0  0  0  0  0  0  0  0  0  0
  -10.8144   -1.0687    0.0000 C   0  0  0  0  0  0  0  0  0  0  0  0
   -8.2164    0.4312    0.0000 C   0  0  0  0  0  0  0  0  0  0  0  0
   -9.5155    1.1812    0.0000 O   0  0  0  0  0  0  0  0  0  0  0  0
   -4.3193   -1.8187    0.0000 C   0  0  0  0  0  0  0  0  0  0  0  0
   -3.0202   -1.0687    0.0000 O   0  0  0  0  0  0  0  0  0  0  0  0
   -1.7212   -1.8187    0.0000 C   0  0  0  0  0  0  0  0  0  0  0  0
   -0.4222   -1.0687    0.0000 C   0  0  0  0  0  0  0  0  0  0  0  0
    0.8768   -1.8187    0.0000 C   0  0  0  0  0  0  0  0  0  0  0  0
    0.8768   -3.3187    0.0000 C   0  0  0  0  0  0  0  0  0  0  0  0
   -0.4222   -4.0687    0.0000 C   0  0  0  0  0  0  0  0  0  0  0  0
   -0.4222   -5.5687    0.0000 O   0  0  0  0  0  0  0  0  0  0  0  0
   -1.7212   -6.3187    0.0000 C   0  0  0  0  0  0  0  0  0  0  0  0
   -1.7212   -3.3187    0.0000 C   0  0  0  0  0  0  0  0  0  0  0  0
   -3.0202   -4.0687    0.0000 O   0  0  0  0  0  0  0  0  0  0  0  0
   -4.3193   -3.3187    0.0000 C   0  0  0  0  0  0  0  0  0  0  0  0
   -5.6184   -4.0687    0.0000 C   0  0  0  0  0  0  0  0  0  0  0  0
   -6.9173   -3.3187    0.0000 O   0  0  0  0  0  0  0  0  0  0  0  0
    2.1759   -1.0687    0.0000 C   0  0  0  0  0  0  0  0  0  0  0  0
    2.1759    0.4312    0.0000 C   0  0  0  0  0  0  0  0  0  0  0  0
    3.4748    1.1812    0.0000 C   0  0  0  0  0  0  0  0  0  0  0  0
    3.4748    2.6813    0.0000 O   0  0  0  0  0  0  0  0  0  0  0  0
    4.7739    0.4312    0.0000 C   0  0  0  0  0  0  0  0  0  0  0  0
    6.0730    1.1812    0.0000 C   0  0  0  0  0  0  0  0  0  0  0  0
    6.0730    2.6813    0.0000 O   0  0  0  0  0  0  0  0  0  0  0  0
    7.3721    0.4312    0.0000 C   0  0  0  0  0  0  0  0  0  0  0  0
    7.3721   -1.0687    0.0000 C   0  0  0  0  0  0  0  0  0  0  0  0
    8.6710   -1.8187    0.0000 O   0  0  0  0  0  0  0  0  0  0  0  0
    6.0730   -1.8187    0.0000 C   0  0  0  0  0  0  0  0  0  0  0  0
    4.7739   -1.0687    0.0000 C   0  0  0  0  0  0  0  0  0  0  0  0
    3.4748   -1.8187    0.0000 O   0  0  0  0  0  0  0  0  0  0  0  0
  1  2  1  0  0  0  0
  2  3  1  0  0  0  0
  3  4  2  0  0  0  0
  4  5  1  0  0  0  0
  5  6  2  0  0  0  0
  6  7  1  0  0  0  0
  7  8  1  0  0  0  0
  8  9  1  0  0  0  0
  7 10  2  0  0  0  0
  3 10  1  0  0  0  0
 10 11  1  0  0  0  0
 12  5  1  1  0  0  0
 12 13  1  0  0  0  0
 13 14  1  0  0  0  0
 14 15  2  0  0  0  0
 15 16  1  0  0  0  0
 16 17  2  0  0  0  0
 17 18  1  0  0  0  0
 18 19  1  0  0  0  0
 19 20  1  0  0  0  0
 18 21  2  0  0  0  0
 14 21  1  0  0  0  0
 21 22  1  0  0  0  0
 22 23  1  0  0  0  0
 12 23  1  0  0  0  0
 23 24  1  6  0  0  0
 24 25  1  0  0  0  0
 16 26  1  0  0  0  0
 26 27  2  0  0  0  0
 27 28  1  0  0  0  0
 28 29  2  0  0  0  0
 28 30  1  0  0  0  0
 30 31  2  0  0  0  0
 31 32  1  0  0  0  0
 31 33  1  0  0  0  0
 33 34  2  0  0  0  0
 34 35  1  0  0  0  0
 34 36  1  0  0  0  0
 36 37  2  0  0  0  0
 30 37  1  0  0  0  0
 37 38  1  0  0  0  0
 26 38  1  0  0  0  0
M  END
> <Molecule Name>
CHEMBL523569

> <IUPAC>
5,7-dihydroxy-2-[(2R,3R)-3-(4-hydroxy-3,5-dimethoxyphenyl)-2-(hydroxymethyl)-8-methoxy-2,3-dihydro-1,4-benzodioxin-6-yl]-4H-chromen-4-one

> <ChEMBL_Data_Neisseria_g: Molecule_Preferred_NAME>
PALSTATIN

> <ChEMBL_Data_Neisseria_g: NUM_RO5_VIOLATIONS>
2

> <ChEMBL_Data_Neisseria_g: Qualifier_for_MIC_Ng>
=

> <ChEMBL_Data_Neisseria_g: ASSAY_CHEMBLID>
CHEMBL1027460

> <ChEMBL_Data_Neisseria_g: DESCRIPTION_of_Assay_Ng>
Antimicrobial activity against Neisseria gonorrhoeae

> <ChEMBL_Data_Neisseria_g: PUBMED_ID>
12608861

> <ChEMBL_Data_Neisseria_g: YEAR>
2003

> <ChEMBL_Data_Neisseria_g: JOURNAL>
J. Nat. Prod.

> <ChEMBL_Data_Neisseria_g: VOLUME>
66

> <ChEMBL_Data_Neisseria_g: FIRST_PAGE>
259

> <ChEMBL_Data_Neisseria_g: MIC_vs_Neisseria_microg_per_mL>
1

> <ALogP>
3.248

> <Active>
1

> <Molecular_Weight>
524.473

$$$$

Generated by Molecular Materials Informatics

 37 40  0  0  0  0  0  0  0  0999 V2000
    0.9790   -9.0860    0.0000 C   0  0  0  0  0  0  0  0  0  0  0  0
    2.3028   -8.3807    0.0000 C   0  0  0  0  0  0  0  0  0  0  0  0
    2.3539   -6.8816    0.0000 C   0  0  0  0  0  0  0  0  0  0  0  0
    1.0814   -6.0878    0.0000 C   0  0  0  0  0  0  0  0  0  0  0  0
    1.1325   -4.5887    0.0000 C   0  0  0  0  0  0  0  0  0  0  0  0
    2.4565   -3.8834    0.0000 C   0  0  0  0  0  0  0  0  0  0  0  0
    3.7290   -4.6772    0.0000 O   0  0  0  0  0  0  0  0  0  0  0  0
    2.5076   -2.3843    0.0000 C   0  0  0  0  0  0  0  0  0  0  0  0
    1.2068   -1.6374    0.0000 C   0  0  0  0  0  0  0  0  0  0  0  0
   -0.0904   -2.3905    0.0000 O   0  0  0  0  0  0  0  0  0  0  0  0
    1.2032   -0.1374    0.0000 C   0  0  0  0  0  0  0  0  0  0  0  0
   -0.0977    0.6095    0.0000 C   0  0  0  0  0  0  0  0  0  0  0  0
    2.5005    0.6157    0.0000 C   0  0  0  0  0  0  0  0  0  0  0  0
    3.8012   -0.1312    0.0000 C   0  0  0  0  0  0  0  0  0  0  0  0
    5.0985    0.6219    0.0000 C   0  0  0  0  0  0  0  0  0  0  0  0
    5.0949    2.1219    0.0000 O   0  0  0  0  0  0  0  0  0  0  0  0
    6.3994   -0.1249    0.0000 C   0  0  0  0  0  0  0  0  0  0  0  0
    6.4281   -1.7676    0.0000 C   0  0  0  0  0  0  0  0  0  0  0  0
    5.1041   -2.4729    0.0000 C   0  0  0  0  0  0  0  0  0  0  0  0
    5.0530   -3.9720    0.0000 O   0  0  0  0  0  0  0  0  0  0  0  0
    3.8314   -1.6790    0.0000 C   0  0  0  0  0  0  0  0  0  0  0  0
    7.7007   -2.5616    0.0000 C   0  0  0  0  0  0  0  0  0  0  0  0
    8.8896   -3.4763    0.0000 C   0  0  0  0  0  0  0  0  0  0  0  0
    9.0394   -2.2201    0.0000 C   0  0  0  0  0  0  0  0  0  0  0  0
    9.6871   -0.8670    0.0000 C   0  0  0  0  0  0  0  0  0  0  0  0
    9.0330    0.4828    0.0000 C   0  0  0  0  0  0  0  0  0  0  0  0
    9.9654    1.6577    0.0000 O   0  0  0  0  0  0  0  0  0  0  0  0
    7.5700    0.8132    0.0000 N   0  0  0  0  0  0  0  0  0  0  0  0
    7.7160   -4.2031    0.0000 C   0  0  0  0  0  0  0  0  0  0  0  0
    6.3090   -4.7231    0.0000 O   0  0  0  0  0  0  0  0  0  0  0  0
    8.6810   -5.3512    0.0000 O   0  0  0  0  0  0  0  0  0  0  0  0
    7.8872   -6.6240    0.0000 C   0  0  0  0  0  0  0  0  0  0  0  0
    8.4501   -8.0143    0.0000 C   0  0  0  0  0  0  0  0  0  0  0  0
    6.4314   -6.2622    0.0000 C   0  0  0  0  0  0  0  0  0  0  0  0
    5.8261   -4.8898    0.0000 O   0  0  0  0  0  0  0  0  0  0  0  0
    4.9507   -6.9703    0.0000 C   0  0  0  0  0  0  0  0  0  0  0  0
    3.6779   -6.1763    0.0000 C   0  0  0  0  0  0  0  0  0  0  0  0
  1  2  1  0  0  0  0
  2  3  1  0  0  0  0
  3  4  1  0  0  0  0
  4  5  1  0  0  0  0
  5  6  1  0  0  0  0
  6  7  2  0  0  0  0
  6  8  1  0  0  0  0
  8  9  2  0  0  0  0
  9 10  1  0  0  0  0
  9 11  1  0  0  0  0
 11 12  1  0  0  0  0
 11 13  2  0  0  0  0
 13 14  1  0  0  0  0
 14 15  1  0  0  0  0
 15 16  2  0  0  0  0
 15 17  1  0  0  0  0
 17 18  2  0  0  0  0
 18 19  1  0  0  0  0
 19 20  2  0  0  0  0
 19 21  1  0  0  0  0
  8 21  1  0  0  0  0
 14 21  2  0  0  0  0
 18 22  1  0  0  0  0
 22 23  1  1  0  0  0
 22 24  1  0  0  0  0
 24 25  2  0  0  0  0
 25 26  1  0  0  0  0
 26 27  2  0  0  0  0
 26 28  1  0  0  0  0
 17 28  1  0  0  0  0
 22 29  1  0  0  0  0
 29 30  2  0  0  0  0
 29 31  1  0  0  0  0
 31 32  1  0  0  0  0
 32 33  1  1  0  0  0
 32 34  1  0  0  0  0
 34 35  1  6  0  0  0
 34 36  1  0  0  0  0
 36 37  2  0  0  0  0
  3 37  1  0  0  0  0
M  END
> <Molecule Name>
CHEMBL518225

> <IUPAC>
(10E,12S,13S,16S)-9-ethyl-4,12-dihydroxy-3,13,16-trimethyl-14-oxa-20-azatetracyclo[19.3.1.0,.0,]pentacosa-1(24),2,4,10,17,21-hexaene-6,15,19,23,25-pentone

> <Collections>
Set2_NotListedAsBetaLactamResistant (mostly)

> <ChEMBL_Data_Neisseria_g: Molecule_Preferred_NAME>
HYGROCIN B

> <ChEMBL_Data_Neisseria_g: NUM_RO5_VIOLATIONS>
1

> <ChEMBL_Data_Neisseria_g: Qualifier_for_MIC_Ng>
=

> <ChEMBL_Data_Neisseria_g: ASSAY_CHEMBLID>
CHEMBL998294

> <ChEMBL_Data_Neisseria_g: DESCRIPTION_of_Assay_Ng>
Antibacterial activity against Neisseria gonorrhoeae by NCCLS M27A method

> <ChEMBL_Data_Neisseria_g: PUBMED_ID>
16378365

> <ChEMBL_Data_Neisseria_g: YEAR>
2005

> <ChEMBL_Data_Neisseria_g: JOURNAL>
J. Nat. Prod.

> <ChEMBL_Data_Neisseria_g: VOLUME>
68

> <ChEMBL_Data_Neisseria_g: FIRST_PAGE>
1736

> <ChEMBL_Data_Neisseria_g: MIC_vs_Neisseria_microg_per_mL>
128

> <ALogP>
3.001

> <Active>
0

> <Molecular_Weight>
507.532

$$$$

Generated by Molecular Materials Informatics

 37 39  0  0  0  0  0  0  0  0999 V2000
    8.7571   -3.1026    0.0000 C   0  0  0  0  0  0  0  0  0  0  0  0
    7.2706   -3.0092    0.0000 C   0  0  0  0  0  0  0  0  0  0  0  0
    6.6082   -1.6751    0.0000 C   0  0  0  0  0  0  0  0  0  0  0  0
    5.1338   -2.1479    0.0000 C   0  0  0  0  0  0  0  0  0  0  0  0
    3.5580   -2.3635    0.0000 C   0  0  0  0  0  0  0  0  0  0  0  0
    1.9809   -2.1589    0.0000 C   0  0  0  0  0  0  0  0  0  0  0  0
    1.0824   -3.3468    0.0000 O   0  0  0  0  0  0  0  0  0  0  0  0
    1.3261   -0.6293    0.0000 C   0  0  0  0  0  0  0  0  0  0  0  0
    2.7400   -0.9607    0.0000 C   0  0  0  0  0  0  0  0  0  0  0  0
    3.8882   -1.9096    0.0000 O   0  0  0  0  0  0  0  0  0  0  0  0
    3.8530    0.0432    0.0000 C   0  0  0  0  0  0  0  0  0  0  0  0
    5.2698   -0.4163    0.0000 C   0  0  0  0  0  0  0  0  0  0  0  0
    3.5493    1.4699    0.0000 C   0  0  0  0  0  0  0  0  0  0  0  0
    2.1251    1.9021    0.0000 C   0  0  0  0  0  0  0  0  0  0  0  0
    1.9928    3.4149    0.0000 C   0  0  0  0  0  0  0  0  0  0  0  0
    3.2220    4.2557    0.0000 O   0  0  0  0  0  0  0  0  0  0  0  0
    0.6424    4.0807    0.0000 C   0  0  0  0  0  0  0  0  0  0  0  0
   -0.5572    3.1990    0.0000 C   0  0  0  0  0  0  0  0  0  0  0  0
   -0.4171    1.6593    0.0000 C   0  0  0  0  0  0  0  0  0  0  0  0
   -1.6621    0.8418    0.0000 O   0  0  0  0  0  0  0  0  0  0  0  0
    0.9582    0.9088    0.0000 C   0  0  0  0  0  0  0  0  0  0  0  0
    1.3143    5.4977    0.0000 N   0  0  0  0  0  0  0  0  0  0  0  0
    2.2968    6.6562    0.0000 C   0  0  0  0  0  0  0  0  0  0  0  0
    1.3992    7.8446    0.0000 O   0  0  0  0  0  0  0  0  0  0  0  0
    3.7327    7.3081    0.0000 C   0  0  0  0  0  0  0  0  0  0  0  0
    5.2939    7.3718    0.0000 C   0  0  0  0  0  0  0  0  0  0  0  0
    6.7696    6.9122    0.0000 C   0  0  0  0  0  0  0  0  0  0  0  0
    7.4450    8.2396    0.0000 C   0  0  0  0  0  0  0  0  0  0  0  0
    8.0149    5.9861    0.0000 C   0  0  0  0  0  0  0  0  0  0  0  0
    9.0858    7.0210    0.0000 O   0  0  0  0  0  0  0  0  0  0  0  0
    8.8681    4.7530    0.0000 O   0  0  0  0  0  0  0  0  0  0  0  0
    9.2976    3.3158    0.0000 C   0  0  0  0  0  0  0  0  0  0  0  0
   10.7738    3.5142    0.0000 C   0  0  0  0  0  0  0  0  0  0  0  0
    9.2629    1.8205    0.0000 C   0  0  0  0  0  0  0  0  0  0  0  0
   10.7283    1.5535    0.0000 O   0  0  0  0  0  0  0  0  0  0  0  0
    8.7659    0.4028    0.0000 C   0  0  0  0  0  0  0  0  0  0  0  0
    7.8475   -0.8064    0.0000 C   0  0  0  0  0  0  0  0  0  0  0  0
  1  2  1  0  0  0  0
  2  3  1  0  0  0  0
  3  4  1  0  0  0  0
  4  5  1  0  0  0  0
  5  6  1  0  0  0  0
  6  7  2  0  0  0  0
  6  8  1  0  0  0  0
  8  9  2  0  0  0  0
  9 10  1  0  0  0  0
  9 11  1  0  0  0  0
 11 12  1  0  0  0  0
 11 13  2  0  0  0  0
 13 14  1  0  0  0  0
 14 15  1  0  0  0  0
 15 16  2  0  0  0  0
 15 17  1  0  0  0  0
 17 18  2  0  0  0  0
 18 19  1  0  0  0  0
 19 20  2  0  0  0  0
 19 21  1  0  0  0  0
  8 21  1  0  0  0  0
 14 21  2  0  0  0  0
 17 22  1  0  0  0  0
 22 23  1  0  0  0  0
 23 24  2  0  0  0  0
 23 25  1  0  0  0  0
 25 26  1  0  0  0  0
 26 27  2  0  0  0  0
 27 28  1  0  0  0  0
 27 29  1  0  0  0  0
 29 30  2  0  0  0  0
 29 31  1  0  0  0  0
 31 32  1  0  0  0  0
 32 33  1  1  0  0  0
 32 34  1  0  0  0  0
 34 35  1  1  0  0  0
 34 36  1  0  0  0  0
 36 37  2  0  0  0  0
  3 37  1  0  0  0  0
M  END
> <Molecule Name>
CHEMBL517001

> <IUPAC>
(10E,12S,13S,16Z)-9-ethyl-4,12-dihydroxy-3,13,16-trimethyl-14-oxa-20-azatricyclo[19.3.1.0,]pentacosa-1(24),2,4,10,16,21-hexaene-6,15,19,23,25-pentone

> <Collections>
Set2_NotListedAsBetaLactamResistant (mostly)

> <ChEMBL_Data_Neisseria_g: Molecule_Preferred_NAME>
HYGROCIN A

> <ChEMBL_Data_Neisseria_g: NUM_RO5_VIOLATIONS>
1

> <ChEMBL_Data_Neisseria_g: Qualifier_for_MIC_Ng>
=

> <ChEMBL_Data_Neisseria_g: ASSAY_CHEMBLID>
CHEMBL998294

> <ChEMBL_Data_Neisseria_g: DESCRIPTION_of_Assay_Ng>
Antibacterial activity against Neisseria gonorrhoeae by NCCLS M27A method

> <ChEMBL_Data_Neisseria_g: PUBMED_ID>
16378365

> <ChEMBL_Data_Neisseria_g: YEAR>
2005

> <ChEMBL_Data_Neisseria_g: JOURNAL>
J. Nat. Prod.

> <ChEMBL_Data_Neisseria_g: VOLUME>
68

> <ChEMBL_Data_Neisseria_g: FIRST_PAGE>
1736

> <ChEMBL_Data_Neisseria_g: MIC_vs_Neisseria_microg_per_mL>
64

> <ALogP>
3.406

> <Active>
0

> <Molecular_Weight>
509.548

$$$$

Generated by Molecular Materials Informatics

 28 30  0  0  0  0  0  0  0  0999 V2000
    7.2594    3.9746    0.0000 C   0  0  0  0  0  0  0  0  0  0  0  0
    7.2594    2.4746    0.0000 O   0  0  0  0  0  0  0  0  0  0  0  0
    5.9603    1.7246    0.0000 C   0  0  0  0  0  0  0  0  0  0  0  0
    5.9603    0.2246    0.0000 C   0  0  0  0  0  0  0  0  0  0  0  0
    4.6613   -0.5254    0.0000 C   0  0  0  0  0  0  0  0  0  0  0  0
    3.3623    0.2246    0.0000 C   0  0  0  0  0  0  0  0  0  0  0  0
    2.0633   -0.5254    0.0000 C   0  0  0  0  0  0  0  0  0  0  0  0
    2.0633   -2.0254    0.0000 C   0  0  0  0  0  0  0  0  0  0  0  0
    3.2767   -2.9071    0.0000 C   0  0  0  0  0  0  0  0  0  0  0  0
    2.8132   -4.3338    0.0000 O   0  0  0  0  0  0  0  0  0  0  0  0
    1.3132   -4.3338    0.0000 C   0  0  0  0  0  0  0  0  0  0  0  0
    0.4316   -5.5473    0.0000 O   0  0  0  0  0  0  0  0  0  0  0  0
    0.8498   -2.9071    0.0000 C   0  0  0  0  0  0  0  0  0  0  0  0
   -0.5769   -2.4436    0.0000 C   0  0  0  0  0  0  0  0  0  0  0  0
   -0.8887   -0.9764    0.0000 C   0  0  0  0  0  0  0  0  0  0  0  0
   -2.3153   -0.5129    0.0000 C   0  0  0  0  0  0  0  0  0  0  0  0
   -2.6271    0.9544    0.0000 C   0  0  0  0  0  0  0  0  0  0  0  0
   -1.5124    1.9580    0.0000 C   0  0  0  0  0  0  0  0  0  0  0  0
   -1.8244    3.4253    0.0000 O   0  0  0  0  0  0  0  0  0  0  0  0
   -3.2509    3.8887    0.0000 C   0  0  0  0  0  0  0  0  0  0  0  0
   -0.0858    1.4946    0.0000 C   0  0  0  0  0  0  0  0  0  0  0  0
    1.0289    2.4982    0.0000 O   0  0  0  0  0  0  0  0  0  0  0  0
    2.4554    2.0347    0.0000 C   0  0  0  0  0  0  0  0  0  0  0  0
    0.2260    0.0273    0.0000 C   0  0  0  0  0  0  0  0  0  0  0  0
    3.3623    1.7246    0.0000 C   0  0  0  0  0  0  0  0  0  0  0  0
    4.6613    2.4746    0.0000 C   0  0  0  0  0  0  0  0  0  0  0  0
    4.6613    3.9746    0.0000 O   0  0  0  0  0  0  0  0  0  0  0  0
    5.9603    4.7246    0.0000 C   0  0  0  0  0  0  0  0  0  0  0  0
  1  2  1  0  0  0  0
  2  3  1  0  0  0  0
  3  4  2  0  0  0  0
  4  5  1  0  0  0  0
  5  6  2  0  0  0  0
  6  7  1  0  0  0  0
  7  8  1  0  0  0  0
  8  9  1  0  0  0  0
  9 10  1  0  0  0  0
 10 11  1  0  0  0  0
 11 12  1  0  0  0  0
 11 13  1  0  0  0  0
  8 13  1  0  0  0  0
 13 14  1  0  0  0  0
 14 15  1  0  0  0  0
 15 16  2  0  0  0  0
 16 17  1  0  0  0  0
 17 18  2  0  0  0  0
 18 19  1  0  0  0  0
 19 20  1  0  0  0  0
 18 21  1  0  0  0  0
 21 22  1  0  0  0  0
 22 23  1  0  0  0  0
 21 24  2  0  0  0  0
 15 24  1  0  0  0  0
  6 25  1  0  0  0  0
 25 26  2  0  0  0  0
  3 26  1  0  0  0  0
 26 27  1  0  0  0  0
 27 28  1  0  0  0  0
M  END
> <Molecule Name>
CHEMBL514686

> <IUPAC>
3,4-bis[(3,4-dimethoxyphenyl)methyl]oxolan-2-ol

> <ChEMBL_Data_Neisseria_g: Molecule_Preferred_NAME>
KUSUNOKINOL

> <ChEMBL_Data_Neisseria_g: NUM_RO5_VIOLATIONS>
0

> <ChEMBL_Data_Neisseria_g: Qualifier_for_MIC_Ng>
=

> <ChEMBL_Data_Neisseria_g: ASSAY_CHEMBLID>
CHEMBL1036073

> <ChEMBL_Data_Neisseria_g: DESCRIPTION_of_Assay_Ng>
Antimicrobial activity against Neisseria gonorrhoeae ATCC 49226 by antimicrobial susceptibility testing

> <ChEMBL_Data_Neisseria_g: PUBMED_ID>
14987061

> <ChEMBL_Data_Neisseria_g: YEAR>
2004

> <ChEMBL_Data_Neisseria_g: JOURNAL>
J. Nat. Prod.

> <ChEMBL_Data_Neisseria_g: VOLUME>
67

> <ChEMBL_Data_Neisseria_g: FIRST_PAGE>
214

> <ChEMBL_Data_Neisseria_g: MIC_vs_Neisseria_microg_per_mL>
32

> <ALogP>
3.592

> <Active>
0

> <Molecular_Weight>
388.454

$$$$

Generated by Molecular Materials Informatics

 29 33  0  0  0  0  0  0  0  0999 V2000
    9.8122   -0.9724    0.0000 C   0  0  0  0  0  0  0  0  0  0  0  0
    9.0145    0.2977    0.0000 O   0  0  0  0  0  0  0  0  0  0  0  0
    7.5157    0.2419    0.0000 C   0  0  0  0  0  0  0  0  0  0  0  0
    6.8144   -1.0840    0.0000 C   0  0  0  0  0  0  0  0  0  0  0  0
    5.4944   -1.5245    0.0000 C   0  0  0  0  0  0  0  0  0  0  0  0
    4.1797   -2.1710    0.0000 C   0  0  0  0  0  0  0  0  0  0  0  0
    2.6351   -2.1410    0.0000 O   0  0  0  0  0  0  0  0  0  0  0  0
    1.7626   -0.8364    0.0000 C   0  0  0  0  0  0  0  0  0  0  0  0
    0.1962   -1.0242    0.0000 C   0  0  0  0  0  0  0  0  0  0  0  0
   -1.0922   -0.1643    0.0000 C   0  0  0  0  0  0  0  0  0  0  0  0
   -2.5423   -0.5477    0.0000 O   0  0  0  0  0  0  0  0  0  0  0  0
   -0.4005    1.2143    0.0000 C   0  0  0  0  0  0  0  0  0  0  0  0
    1.1263    1.0160    0.0000 C   0  0  0  0  0  0  0  0  0  0  0  0
    2.6797    0.5268    0.0000 C   0  0  0  0  0  0  0  0  0  0  0  0
    2.7984    2.1114    0.0000 C   0  0  0  0  0  0  0  0  0  0  0  0
    3.7970    1.0238    0.0000 C   0  0  0  0  0  0  0  0  0  0  0  0
    5.0238    1.9327    0.0000 C   0  0  0  0  0  0  0  0  0  0  0  0
    6.1350    0.3731    0.0000 O   0  0  0  0  0  0  0  0  0  0  0  0
    5.3060   -0.8768    0.0000 C   0  0  0  0  0  0  0  0  0  0  0  0
    5.8300   -2.2823    0.0000 O   0  0  0  0  0  0  0  0  0  0  0  0
    3.8610   -0.4746    0.0000 C   0  0  0  0  0  0  0  0  0  0  0  0
    4.5179    0.1304    0.0000 C   0  0  0  0  0  0  0  0  0  0  0  0
    5.2189    1.4563    0.0000 C   0  0  0  0  0  0  0  0  0  0  0  0
    4.4213    2.7264    0.0000 O   0  0  0  0  0  0  0  0  0  0  0  0
    5.1224    4.0525    0.0000 C   0  0  0  0  0  0  0  0  0  0  0  0
    6.7179    1.5121    0.0000 C   0  0  0  0  0  0  0  0  0  0  0  0
    7.4189    2.8380    0.0000 O   0  0  0  0  0  0  0  0  0  0  0  0
    8.9177    2.8939    0.0000 C   0  0  0  0  0  0  0  0  0  0  0  0
   -1.1041    2.5390    0.0000 O   0  0  0  0  0  0  0  0  0  0  0  0
  1  2  1  0  0  0  0
  2  3  1  0  0  0  0
  3  4  2  0  0  0  0
  4  5  1  0  0  0  0
  5  6  1  0  0  0  0
  6  7  1  1  0  0  0
  7  8  1  0  0  0  0
  8  9  2  0  0  0  0
  9 10  1  0  0  0  0
 10 11  2  0  0  0  0
 10 12  1  0  0  0  0
 12 13  2  0  0  0  0
 14 13  1  1  0  0  0
  8 14  1  0  0  0  0
 14 15  1  0  0  0  0
 15 16  1  0  0  0  0
 16 17  1  1  0  0  0
 17 18  1  0  0  0  0
 18 19  1  0  0  0  0
 19 20  2  0  0  0  0
 21 19  1  1  0  0  0
  6 21  1  0  0  0  0
 16 21  1  0  0  0  0
 14 22  1  0  0  0  0
  5 22  2  0  0  0  0
 22 23  1  0  0  0  0
 23 24  1  0  0  0  0
 24 25  1  0  0  0  0
 23 26  2  0  0  0  0
  3 26  1  0  0  0  0
 26 27  1  0  0  0  0
 27 28  1  0  0  0  0
 12 29  1  0  0  0  0
M  END
> <Molecule Name>
CHEMBL514089

> <IUPAC>
(1S,8S,9S,13R)-16-hydroxy-3,4,5-trimethoxy-11,20-dioxapentacyclo[6.6.6.0,.0,.0,]icosa-2(7),3,5,15,18-pentaene-10,17-dione

> <ChEMBL_Data_Neisseria_g: NUM_RO5_VIOLATIONS>
0

> <ChEMBL_Data_Neisseria_g: Qualifier_for_MIC_Ng>
=

> <ChEMBL_Data_Neisseria_g: ASSAY_CHEMBLID>
CHEMBL1036073

> <ChEMBL_Data_Neisseria_g: DESCRIPTION_of_Assay_Ng>
Antimicrobial activity against Neisseria gonorrhoeae ATCC 49226 by antimicrobial susceptibility testing

> <ChEMBL_Data_Neisseria_g: PUBMED_ID>
14987061

> <ChEMBL_Data_Neisseria_g: YEAR>
2004

> <ChEMBL_Data_Neisseria_g: JOURNAL>
J. Nat. Prod.

> <ChEMBL_Data_Neisseria_g: VOLUME>
67

> <ChEMBL_Data_Neisseria_g: FIRST_PAGE>
214

> <ChEMBL_Data_Neisseria_g: MIC_vs_Neisseria_microg_per_mL>
32

> <ALogP>
1.139

> <Active>
0

> <Molecular_Weight>
400.379

$$$$

Generated by Molecular Materials Informatics

 30 33  0  0  0  0  0  0  0  0999 V2000
   12.3119    5.2557    0.0000 C   0  0  0  0  0  0  0  0  0  0  0  0
   11.1972    4.2521    0.0000 O   0  0  0  0  0  0  0  0  0  0  0  0
    9.7706    4.7157    0.0000 C   0  0  0  0  0  0  0  0  0  0  0  0
    8.6559    3.7119    0.0000 C   0  0  0  0  0  0  0  0  0  0  0  0
    7.2294    4.1755    0.0000 C   0  0  0  0  0  0  0  0  0  0  0  0
    6.9176    5.6426    0.0000 C   0  0  0  0  0  0  0  0  0  0  0  0
    8.0323    6.6465    0.0000 C   0  0  0  0  0  0  0  0  0  0  0  0
    7.7205    8.1135    0.0000 O   0  0  0  0  0  0  0  0  0  0  0  0
    8.8350    9.1174    0.0000 C   0  0  0  0  0  0  0  0  0  0  0  0
    9.4588    6.1828    0.0000 C   0  0  0  0  0  0  0  0  0  0  0  0
   10.5736    7.1866    0.0000 O   0  0  0  0  0  0  0  0  0  0  0  0
   12.0001    6.7230    0.0000 C   0  0  0  0  0  0  0  0  0  0  0  0
    6.1146    3.1717    0.0000 C   0  0  0  0  0  0  0  0  0  0  0  0
    6.4265    1.7046    0.0000 O   0  0  0  0  0  0  0  0  0  0  0  0
    4.6881    3.6354    0.0000 C   0  0  0  0  0  0  0  0  0  0  0  0
    3.4746    2.7535    0.0000 C   0  0  0  0  0  0  0  0  0  0  0  0
    3.4746    1.2535    0.0000 C   0  0  0  0  0  0  0  0  0  0  0  0
    2.1755    0.5035    0.0000 C   0  0  0  0  0  0  0  0  0  0  0  0
    2.1755   -0.9965    0.0000 C   0  0  0  0  0  0  0  0  0  0  0  0
    0.8765   -1.7465    0.0000 C   0  0  0  0  0  0  0  0  0  0  0  0
   -0.4226   -0.9965    0.0000 C   0  0  0  0  0  0  0  0  0  0  0  0
   -1.8492   -1.4599    0.0000 O   0  0  0  0  0  0  0  0  0  0  0  0
   -2.7308   -0.2465    0.0000 C   0  0  0  0  0  0  0  0  0  0  0  0
   -1.8492    0.9672    0.0000 O   0  0  0  0  0  0  0  0  0  0  0  0
   -0.4226    0.5035    0.0000 C   0  0  0  0  0  0  0  0  0  0  0  0
    0.8765    1.2535    0.0000 C   0  0  0  0  0  0  0  0  0  0  0  0
    2.2610    3.6354    0.0000 C   0  0  0  0  0  0  0  0  0  0  0  0
    2.7246    5.0619    0.0000 O   0  0  0  0  0  0  0  0  0  0  0  0
    4.2246    5.0619    0.0000 C   0  0  0  0  0  0  0  0  0  0  0  0
    5.1063    6.2754    0.0000 O   0  0  0  0  0  0  0  0  0  0  0  0
  1  2  1  0  0  0  0
  2  3  1  0  0  0  0
  3  4  2  0  0  0  0
  4  5  1  0  0  0  0
  5  6  2  0  0  0  0
  6  7  1  0  0  0  0
  7  8  1  0  0  0  0
  8  9  1  0  0  0  0
  7 10  2  0  0  0  0
  3 10  1  0  0  0  0
 10 11  1  0  0  0  0
 11 12  1  0  0  0  0
  5 13  1  0  0  0  0
 13 14  1  1  0  0  0
 15 13  1  6  0  0  0
 15 16  1  0  0  0  0
 16 17  1  1  0  0  0
 17 18  1  0  0  0  0
 18 19  2  0  0  0  0
 19 20  1  0  0  0  0
 20 21  2  0  0  0  0
 21 22  1  0  0  0  0
 22 23  1  0  0  0  0
 23 24  1  0  0  0  0
 24 25  1  0  0  0  0
 21 25  1  0  0  0  0
 25 26  2  0  0  0  0
 18 26  1  0  0  0  0
 16 27  1  0  0  0  0
 27 28  1  0  0  0  0
 28 29  1  0  0  0  0
 15 29  1  0  0  0  0
 29 30  2  0  0  0  0
M  END
> <Molecule Name>
CHEMBL512541

> <IUPAC>
(3S,4R)-4-[(2H-1,3-benzodioxol-5-yl)methyl]-3-[(S)-hydroxy(3,4,5-trimethoxyphenyl)methyl]oxolan-2-one

> <ChEMBL_Data_Neisseria_g: Molecule_Preferred_NAME>
PODORHIZOL

> <ChEMBL_Data_Neisseria_g: NUM_RO5_VIOLATIONS>
0

> <ChEMBL_Data_Neisseria_g: Qualifier_for_MIC_Ng>
=

> <ChEMBL_Data_Neisseria_g: ASSAY_CHEMBLID>
CHEMBL1036073

> <ChEMBL_Data_Neisseria_g: DESCRIPTION_of_Assay_Ng>
Antimicrobial activity against Neisseria gonorrhoeae ATCC 49226 by antimicrobial susceptibility testing

> <ChEMBL_Data_Neisseria_g: PUBMED_ID>
14987061

> <ChEMBL_Data_Neisseria_g: YEAR>
2004

> <ChEMBL_Data_Neisseria_g: JOURNAL>
J. Nat. Prod.

> <ChEMBL_Data_Neisseria_g: VOLUME>
67

> <ChEMBL_Data_Neisseria_g: FIRST_PAGE>
214

> <ChEMBL_Data_Neisseria_g: MIC_vs_Neisseria_microg_per_mL>
32

> <ALogP>
2.787

> <Active>
0

> <Molecular_Weight>
416.421

$$$$

Generated by Molecular Materials Informatics

 23 25  0  0  0  0  0  0  0  0999 V2000
    1.3911    4.7318    0.0000 C   0  0  0  0  0  0  0  0  0  0  0  0
    0.6411    3.4327    0.0000 O   0  0  0  0  0  0  0  0  0  0  0  0
    1.3911    2.1337    0.0000 C   0  0  0  0  0  0  0  0  0  0  0  0
    2.8911    2.1337    0.0000 C   0  0  0  0  0  0  0  0  0  0  0  0
    3.6411    0.8347    0.0000 C   0  0  0  0  0  0  0  0  0  0  0  0
    5.1411    0.8347    0.0000 C   0  0  0  0  0  0  0  0  0  0  0  0
    4.8806    2.3118    0.0000 C   0  0  0  0  0  0  0  0  0  0  0  0
    6.5506    1.3477    0.0000 C   0  0  0  0  0  0  0  0  0  0  0  0
    5.8911   -0.4643    0.0000 C   0  0  0  0  0  0  0  0  0  0  0  0
    5.1411   -1.7634    0.0000 C   0  0  0  0  0  0  0  0  0  0  0  0
    3.6411   -1.7634    0.0000 C   0  0  0  0  0  0  0  0  0  0  0  0
    2.8911   -0.4643    0.0000 C   0  0  0  0  0  0  0  0  0  0  0  0
    2.1411   -1.7634    0.0000 C   0  0  0  0  0  0  0  0  0  0  0  0
    1.3911   -0.4643    0.0000 C   0  0  0  0  0  0  0  0  0  0  0  0
    0.6411   -1.7634    0.0000 C   0  0  0  0  0  0  0  0  0  0  0  0
   -0.8589   -1.7634    0.0000 C   0  0  0  0  0  0  0  0  0  0  0  0
   -1.6089   -0.4643    0.0000 C   0  0  0  0  0  0  0  0  0  0  0  0
   -3.1089   -0.4643    0.0000 O   0  0  0  0  0  0  0  0  0  0  0  0
   -0.8589    0.8347    0.0000 C   0  0  0  0  0  0  0  0  0  0  0  0
   -1.6089    2.1337    0.0000 C   0  0  0  0  0  0  0  0  0  0  0  0
   -0.8589    3.4327    0.0000 C   0  0  0  0  0  0  0  0  0  0  0  0
   -3.1089    2.1337    0.0000 C   0  0  0  0  0  0  0  0  0  0  0  0
    0.6411    0.8347    0.0000 C   0  0  0  0  0  0  0  0  0  0  0  0
  1  2  1  0  0  0  0
  3  2  1  1  0  0  0
  3  4  1  0  0  0  0
  5  4  1  1  0  0  0
  5  6  1  0  0  0  0
  6  7  1  0  0  0  0
  6  8  1  0  0  0  0
  6  9  1  0  0  0  0
  9 10  1  0  0  0  0
 10 11  1  0  0  0  0
 11 12  1  0  0  0  0
  5 12  1  0  0  0  0
 12 13  1  1  0  0  0
 12 14  1  0  0  0  0
 14 15  2  0  0  0  0
 15 16  1  0  0  0  0
 16 17  2  0  0  0  0
 17 18  1  0  0  0  0
 17 19  1  0  0  0  0
 19 20  1  0  0  0  0
 20 21  1  0  0  0  0
 20 22  1  0  0  0  0
 19 23  2  0  0  0  0
  3 23  1  0  0  0  0
 14 23  1  0  0  0  0
M  END
> <Molecule Name>
CHEMBL510002

> <IUPAC>
(4bS,8aS,10S)-10-methoxy-4b,8,8-trimethyl-1-(propan-2-yl)-4b,5,6,7,8,8a,9,10-octahydrophenanthren-2-ol

> <ChEMBL_Data_Neisseria_g: Molecule_Preferred_NAME>
NOOTKASTATIN 1

> <ChEMBL_Data_Neisseria_g: NUM_RO5_VIOLATIONS>
1

> <ChEMBL_Data_Neisseria_g: Qualifier_for_MIC_Ng>
>

> <ChEMBL_Data_Neisseria_g: ASSAY_CHEMBLID>
CHEMBL997513

> <ChEMBL_Data_Neisseria_g: DESCRIPTION_of_Assay_Ng>
Antimicrobial activity against Neisseria gonorrhoeae ATCC 49226 after 24 hrs by broth microdilution assay in presence of 25% human serum

> <ChEMBL_Data_Neisseria_g: PUBMED_ID>
15387645

> <ChEMBL_Data_Neisseria_g: YEAR>
2004

> <ChEMBL_Data_Neisseria_g: JOURNAL>
J. Nat. Prod.

> <ChEMBL_Data_Neisseria_g: VOLUME>
67

> <ChEMBL_Data_Neisseria_g: FIRST_PAGE>
1476

> <ChEMBL_Data_Neisseria_g: MIC_vs_Neisseria_microg_per_mL>
64

> <ALogP>
5.31

> <Active>
0

> <Molecular_Weight>
316.478

$$$$

Generated by Molecular Materials Informatics

 38 41  0  0  0  0  0  0  0  0999 V2000
   -0.0253    5.6931    0.0000 C   0  0  0  0  0  0  0  0  0  0  0  0
   -0.0253    4.1931    0.0000 O   0  0  0  0  0  0  0  0  0  0  0  0
    1.2735    3.4432    0.0000 C   0  0  0  0  0  0  0  0  0  0  0  0
    1.2735    1.9432    0.0000 C   0  0  0  0  0  0  0  0  0  0  0  0
    2.5726    1.1932    0.0000 C   0  0  0  0  0  0  0  0  0  0  0  0
    3.8716    1.9432    0.0000 C   0  0  0  0  0  0  0  0  0  0  0  0
    5.1707    1.1932    0.0000 C   0  0  0  0  0  0  0  0  0  0  0  0
    5.1707   -0.3067    0.0000 C   0  0  0  0  0  0  0  0  0  0  0  0
    3.8716   -1.0567    0.0000 C   0  0  0  0  0  0  0  0  0  0  0  0
    3.8716   -2.5566    0.0000 C   0  0  0  0  0  0  0  0  0  0  0  0
    2.5726   -3.3066    0.0000 C   0  0  0  0  0  0  0  0  0  0  0  0
    2.5726   -4.8066    0.0000 O   0  0  0  0  0  0  0  0  0  0  0  0
    1.2735   -5.5566    0.0000 C   0  0  0  0  0  0  0  0  0  0  0  0
    1.2735   -2.5566    0.0000 C   0  0  0  0  0  0  0  0  0  0  0  0
   -0.1530   -3.0201    0.0000 O   0  0  0  0  0  0  0  0  0  0  0  0
   -1.0346   -1.8067    0.0000 C   0  0  0  0  0  0  0  0  0  0  0  0
   -0.1530   -0.5931    0.0000 O   0  0  0  0  0  0  0  0  0  0  0  0
    1.2735   -1.0567    0.0000 C   0  0  0  0  0  0  0  0  0  0  0  0
    2.5726   -0.3067    0.0000 C   0  0  0  0  0  0  0  0  0  0  0  0
    3.8716    3.4432    0.0000 C   0  0  0  0  0  0  0  0  0  0  0  0
    2.5726    4.1931    0.0000 C   0  0  0  0  0  0  0  0  0  0  0  0
    2.5726    5.6931    0.0000 N   0  0  0  0  0  0  0  0  0  0  0  0
    3.8716    6.4431    0.0000 C   0  0  0  0  0  0  0  0  0  0  0  0
    5.1707    5.6931    0.0000 O   0  0  0  0  0  0  0  0  0  0  0  0
    3.8716    7.9430    0.0000 C   0  0  0  0  0  0  0  0  0  0  0  0
    2.5726    8.6930    0.0000 N   0  0  0  0  0  0  0  0  0  0  0  0
    5.1707    8.6930    0.0000 C   0  0  0  0  0  0  0  0  0  0  0  0
    5.1707   10.1930    0.0000 C   0  0  0  0  0  0  0  0  0  0  0  0
    3.8716   10.9429    0.0000 C   0  0  0  0  0  0  0  0  0  0  0  0
    3.8716   12.4429    0.0000 C   0  0  0  0  0  0  0  0  0  0  0  0
    5.1707   13.1929    0.0000 C   0  0  0  0  0  0  0  0  0  0  0  0
    5.1707   14.6928    0.0000 O   0  0  0  0  0  0  0  0  0  0  0  0
    3.8716   15.4428    0.0000 P   0  0  0  0  0  0  0  0  0  0  0  0
    2.5726   16.1928    0.0000 O   0  0  0  0  0  0  0  0  0  0  0  0
    4.6216   16.7419    0.0000 O   0  0  0  0  0  0  0  0  0  0  0  0
    3.1217   14.1439    0.0000 O   0  0  0  0  0  0  0  0  0  0  0  0
    6.4696   12.4429    0.0000 C   0  0  0  0  0  0  0  0  0  0  0  0
    6.4696   10.9429    0.0000 C   0  0  0  0  0  0  0  0  0  0  0  0
  1  2  1  0  0  0  0
  2  3  1  0  0  0  0
  3  4  2  0  0  0  0
  4  5  1  0  0  0  0
  5  6  2  0  0  0  0
  6  7  1  0  0  0  0
  7  8  2  0  0  0  0
  8  9  1  0  0  0  0
  9 10  2  0  0  0  0
 10 11  1  0  0  0  0
 11 12  1  0  0  0  0
 12 13  1  0  0  0  0
 11 14  2  0  0  0  0
 14 15  1  0  0  0  0
 15 16  1  0  0  0  0
 16 17  1  0  0  0  0
 17 18  1  0  0  0  0
 14 18  1  0  0  0  0
 18 19  2  0  0  0  0
  9 19  1  0  0  0  0
  6 20  1  0  0  0  0
 20 21  2  0  0  0  0
  3 21  1  0  0  0  0
 21 22  1  0  0  0  0
 22 23  1  0  0  0  0
 23 24  2  0  0  0  0
 23 25  1  0  0  0  0
 25 26  1  1  0  0  0
 25 27  1  0  0  0  0
 27 28  1  0  0  0  0
 28 29  2  0  0  0  0
 29 30  1  0  0  0  0
 30 31  2  0  0  0  0
 31 32  1  0  0  0  0
 32 33  1  0  0  0  0
 33 34  2  0  0  0  0
 33 35  1  0  0  0  0
 33 36  1  0  0  0  0
 31 37  1  0  0  0  0
 37 38  2  0  0  0  0
 28 38  1  0  0  0  0
M  END
> <Molecule Name>
CHEMBL486184

> <IUPAC>
{4-[(2S)-2-amino-2-({2-methoxy-5-[(Z)-2-(7-methoxy-2H-1,3-benzodioxol-5-yl)ethenyl]phenyl}carbamoyl)ethyl]phenoxy}phosphonic acid

> <ChEMBL_Data_Neisseria_g: NUM_RO5_VIOLATIONS>
1

> <ChEMBL_Data_Neisseria_g: Qualifier_for_MIC_Ng>
=

> <ChEMBL_Data_Neisseria_g: ASSAY_CHEMBLID>
CHEMBL1006824

> <ChEMBL_Data_Neisseria_g: DESCRIPTION_of_Assay_Ng>
Antimicrobial activity against Neisseria gonorrhoeae ATCC 49226 by broth microdilution assay

> <ChEMBL_Data_Neisseria_g: PUBMED_ID>
16124759

> <ChEMBL_Data_Neisseria_g: YEAR>
2005

> <ChEMBL_Data_Neisseria_g: JOURNAL>
J. Nat. Prod.

> <ChEMBL_Data_Neisseria_g: VOLUME>
68

> <ChEMBL_Data_Neisseria_g: FIRST_PAGE>
1191

> <ChEMBL_Data_Neisseria_g: MIC_vs_Neisseria_microg_per_mL>
0.125

> <ALogP>
3.254

> <Active>
1

> <Molecular_Weight>
542.474

$$$$

Generated by Molecular Materials Informatics

 28 30  0  0  0  0  0  0  0  0999 V2000
   -3.6372   -0.7500    0.0000 C   0  0  0  0  0  0  0  0  0  0  0  0
   -2.3382    0.0000    0.0000 O   0  0  0  0  0  0  0  0  0  0  0  0
   -1.0391   -0.7500    0.0000 C   0  0  0  0  0  0  0  0  0  0  0  0
    0.2598    0.0000    0.0000 C   0  0  0  0  0  0  0  0  0  0  0  0
    1.5589   -0.7500    0.0000 C   0  0  0  0  0  0  0  0  0  0  0  0
    2.8579    0.0000    0.0000 O   0  0  0  0  0  0  0  0  0  0  0  0
    4.1570   -0.7500    0.0000 C   0  0  0  0  0  0  0  0  0  0  0  0
    4.1570   -2.2500    0.0000 C   0  0  0  0  0  0  0  0  0  0  0  0
    2.8579   -3.0000    0.0000 C   0  0  0  0  0  0  0  0  0  0  0  0
    2.8579   -4.4999    0.0000 O   0  0  0  0  0  0  0  0  0  0  0  0
    1.5589   -2.2500    0.0000 C   0  0  0  0  0  0  0  0  0  0  0  0
    0.2598   -3.0000    0.0000 C   0  0  0  0  0  0  0  0  0  0  0  0
    0.2598   -4.4999    0.0000 O   0  0  0  0  0  0  0  0  0  0  0  0
   -1.0391   -2.2500    0.0000 C   0  0  0  0  0  0  0  0  0  0  0  0
   -2.3382   -3.0000    0.0000 O   0  0  0  0  0  0  0  0  0  0  0  0
   -3.6372   -2.2500    0.0000 C   0  0  0  0  0  0  0  0  0  0  0  0
    5.4559    0.0000    0.0000 C   0  0  0  0  0  0  0  0  0  0  0  0
    5.4559    1.5000    0.0000 C   0  0  0  0  0  0  0  0  0  0  0  0
    6.7550    2.2500    0.0000 C   0  0  0  0  0  0  0  0  0  0  0  0
    6.7550    3.7499    0.0000 O   0  0  0  0  0  0  0  0  0  0  0  0
    8.0540    4.4999    0.0000 C   0  0  0  0  0  0  0  0  0  0  0  0
    8.0540    1.5000    0.0000 C   0  0  0  0  0  0  0  0  0  0  0  0
    9.3529    2.2500    0.0000 O   0  0  0  0  0  0  0  0  0  0  0  0
    9.3529    3.7499    0.0000 C   0  0  0  0  0  0  0  0  0  0  0  0
    8.0540    0.0000    0.0000 C   0  0  0  0  0  0  0  0  0  0  0  0
    9.3529   -0.7500    0.0000 O   0  0  0  0  0  0  0  0  0  0  0  0
    9.3529   -2.2500    0.0000 C   0  0  0  0  0  0  0  0  0  0  0  0
    6.7550   -0.7500    0.0000 C   0  0  0  0  0  0  0  0  0  0  0  0
  1  2  1  0  0  0  0
  2  3  1  0  0  0  0
  3  4  2  0  0  0  0
  4  5  1  0  0  0  0
  5  6  1  0  0  0  0
  6  7  1  0  0  0  0
  7  8  2  0  0  0  0
  8  9  1  0  0  0  0
  9 10  2  0  0  0  0
  9 11  1  0  0  0  0
  5 11  2  0  0  0  0
 11 12  1  0  0  0  0
 12 13  1  0  0  0  0
 12 14  2  0  0  0  0
  3 14  1  0  0  0  0
 14 15  1  0  0  0  0
 15 16  1  0  0  0  0
  7 17  1  0  0  0  0
 17 18  2  0  0  0  0
 18 19  1  0  0  0  0
 19 20  1  0  0  0  0
 20 21  1  0  0  0  0
 19 22  2  0  0  0  0
 22 23  1  0  0  0  0
 23 24  1  0  0  0  0
 22 25  1  0  0  0  0
 25 26  1  0  0  0  0
 26 27  1  0  0  0  0
 25 28  2  0  0  0  0
 17 28  1  0  0  0  0
M  END
> <Molecule Name>
CHEMBL485823

> <CDD Number>
CDD-1024768

> <IUPAC>
5-hydroxy-6,7-dimethoxy-2-(3,4,5-trimethoxyphenyl)-4H-chromen-4-one

> <Collections>
TrainingSet_Kleb_p_ALPerryman_JSF

> <ChEMBL_Data_Neisseria_g: Molecule_Preferred_NAME>
GRADENIN A

> <ChEMBL_Data_Neisseria_g: NUM_RO5_VIOLATIONS>
0

> <ChEMBL_Data_Neisseria_g: Qualifier_for_MIC_Ng>
>

> <ChEMBL_Data_Neisseria_g: ASSAY_CHEMBLID>
CHEMBL963432

> <ChEMBL_Data_Neisseria_g: DESCRIPTION_of_Assay_Ng>
Antibacterial activity against Neisseria gonorrhoeae

> <ChEMBL_Data_Neisseria_g: PUBMED_ID>
3204384

> <ChEMBL_Data_Neisseria_g: YEAR>
1988

> <ChEMBL_Data_Neisseria_g: JOURNAL>
J. Nat. Prod.

> <ChEMBL_Data_Neisseria_g: VOLUME>
51

> <ChEMBL_Data_Neisseria_g: FIRST_PAGE>
966

> <ChEMBL_Data_Neisseria_g: MIC_vs_Neisseria_microg_per_mL>
200

> <ALogP>
2.812

> <Active>
0

> <Molecular_Weight>
388.368

$$$$

Generated by Molecular Materials Informatics

 28 30  0  0  0  0  0  0  0  0999 V2000
    7.2594    3.9746    0.0000 C   0  0  0  0  0  0  0  0  0  0  0  0
    7.2594    2.4746    0.0000 O   0  0  0  0  0  0  0  0  0  0  0  0
    5.9603    1.7246    0.0000 C   0  0  0  0  0  0  0  0  0  0  0  0
    5.9603    0.2246    0.0000 C   0  0  0  0  0  0  0  0  0  0  0  0
    4.6613   -0.5254    0.0000 C   0  0  0  0  0  0  0  0  0  0  0  0
    3.3623    0.2246    0.0000 C   0  0  0  0  0  0  0  0  0  0  0  0
    2.0633   -0.5254    0.0000 C   0  0  0  0  0  0  0  0  0  0  0  0
    2.0633   -2.0254    0.0000 C   0  0  0  0  0  0  0  0  0  0  0  0
    3.2767   -2.9071    0.0000 C   0  0  0  0  0  0  0  0  0  0  0  0
    2.8132   -4.3338    0.0000 O   0  0  0  0  0  0  0  0  0  0  0  0
    1.3132   -4.3338    0.0000 C   0  0  0  0  0  0  0  0  0  0  0  0
    0.4316   -5.5473    0.0000 O   0  0  0  0  0  0  0  0  0  0  0  0
    0.8498   -2.9071    0.0000 C   0  0  0  0  0  0  0  0  0  0  0  0
   -0.5769   -2.4436    0.0000 C   0  0  0  0  0  0  0  0  0  0  0  0
   -0.8887   -0.9764    0.0000 C   0  0  0  0  0  0  0  0  0  0  0  0
   -2.3153   -0.5129    0.0000 C   0  0  0  0  0  0  0  0  0  0  0  0
   -2.6271    0.9544    0.0000 C   0  0  0  0  0  0  0  0  0  0  0  0
   -1.5124    1.9580    0.0000 C   0  0  0  0  0  0  0  0  0  0  0  0
   -1.8244    3.4253    0.0000 O   0  0  0  0  0  0  0  0  0  0  0  0
   -3.2509    3.8887    0.0000 C   0  0  0  0  0  0  0  0  0  0  0  0
   -0.0858    1.4946    0.0000 C   0  0  0  0  0  0  0  0  0  0  0  0
    1.0289    2.4982    0.0000 O   0  0  0  0  0  0  0  0  0  0  0  0
    2.4554    2.0347    0.0000 C   0  0  0  0  0  0  0  0  0  0  0  0
    0.2260    0.0273    0.0000 C   0  0  0  0  0  0  0  0  0  0  0  0
    3.3623    1.7246    0.0000 C   0  0  0  0  0  0  0  0  0  0  0  0
    4.6613    2.4746    0.0000 C   0  0  0  0  0  0  0  0  0  0  0  0
    4.6613    3.9746    0.0000 O   0  0  0  0  0  0  0  0  0  0  0  0
    5.9603    4.7246    0.0000 C   0  0  0  0  0  0  0  0  0  0  0  0
  1  2  1  0  0  0  0
  2  3  1  0  0  0  0
  3  4  2  0  0  0  0
  4  5  1  0  0  0  0
  5  6  2  0  0  0  0
  6  7  1  0  0  0  0
  8  7  1  1  0  0  0
  8  9  1  0  0  0  0
  9 10  1  0  0  0  0
 10 11  1  0  0  0  0
 11 12  2  0  0  0  0
 11 13  1  0  0  0  0
  8 13  1  0  0  0  0
 13 14  1  6  0  0  0
 14 15  1  0  0  0  0
 15 16  2  0  0  0  0
 16 17  1  0  0  0  0
 17 18  2  0  0  0  0
 18 19  1  0  0  0  0
 19 20  1  0  0  0  0
 18 21  1  0  0  0  0
 21 22  1  0  0  0  0
 22 23  1  0  0  0  0
 21 24  2  0  0  0  0
 15 24  1  0  0  0  0
  6 25  1  0  0  0  0
 25 26  2  0  0  0  0
  3 26  1  0  0  0  0
 26 27  1  0  0  0  0
 27 28  1  0  0  0  0
M  END
> <Molecule Name>
CHEMBL476709

> <IUPAC>
(3R,4R)-3,4-bis[(3,4-dimethoxyphenyl)methyl]oxolan-2-one

> <ChEMBL_Data_Neisseria_g: NUM_RO5_VIOLATIONS>
0

> <ChEMBL_Data_Neisseria_g: Qualifier_for_MIC_Ng>
=

> <ChEMBL_Data_Neisseria_g: ASSAY_CHEMBLID>
CHEMBL1036073

> <ChEMBL_Data_Neisseria_g: DESCRIPTION_of_Assay_Ng>
Antimicrobial activity against Neisseria gonorrhoeae ATCC 49226 by antimicrobial susceptibility testing

> <ChEMBL_Data_Neisseria_g: PUBMED_ID>
14987061

> <ChEMBL_Data_Neisseria_g: YEAR>
2004

> <ChEMBL_Data_Neisseria_g: JOURNAL>
J. Nat. Prod.

> <ChEMBL_Data_Neisseria_g: VOLUME>
67

> <ChEMBL_Data_Neisseria_g: FIRST_PAGE>
214

> <ChEMBL_Data_Neisseria_g: MIC_vs_Neisseria_microg_per_mL>
32

> <ALogP>
3.969

> <Active>
0

> <Molecular_Weight>
386.438

$$$$

Generated by Molecular Materials Informatics

 29 32  0  0  0  0  0  0  0  0999 V2000
   12.3119    5.2557    0.0000 C   0  0  0  0  0  0  0  0  0  0  0  0
   11.1972    4.2521    0.0000 O   0  0  0  0  0  0  0  0  0  0  0  0
    9.7706    4.7157    0.0000 C   0  0  0  0  0  0  0  0  0  0  0  0
    8.6559    3.7119    0.0000 C   0  0  0  0  0  0  0  0  0  0  0  0
    7.2294    4.1755    0.0000 C   0  0  0  0  0  0  0  0  0  0  0  0
    6.1146    3.1717    0.0000 C   0  0  0  0  0  0  0  0  0  0  0  0
    4.6881    3.6354    0.0000 C   0  0  0  0  0  0  0  0  0  0  0  0
    3.4746    2.7535    0.0000 C   0  0  0  0  0  0  0  0  0  0  0  0
    3.4746    1.2535    0.0000 C   0  0  0  0  0  0  0  0  0  0  0  0
    2.1755    0.5035    0.0000 C   0  0  0  0  0  0  0  0  0  0  0  0
    2.1755   -0.9965    0.0000 C   0  0  0  0  0  0  0  0  0  0  0  0
    0.8765   -1.7465    0.0000 C   0  0  0  0  0  0  0  0  0  0  0  0
   -0.4226   -0.9965    0.0000 C   0  0  0  0  0  0  0  0  0  0  0  0
   -1.8492   -1.4599    0.0000 O   0  0  0  0  0  0  0  0  0  0  0  0
   -2.7308   -0.2465    0.0000 C   0  0  0  0  0  0  0  0  0  0  0  0
   -1.8492    0.9672    0.0000 O   0  0  0  0  0  0  0  0  0  0  0  0
   -0.4226    0.5035    0.0000 C   0  0  0  0  0  0  0  0  0  0  0  0
    0.8765    1.2535    0.0000 C   0  0  0  0  0  0  0  0  0  0  0  0
    2.2610    3.6354    0.0000 C   0  0  0  0  0  0  0  0  0  0  0  0
    2.7246    5.0619    0.0000 O   0  0  0  0  0  0  0  0  0  0  0  0
    4.2246    5.0619    0.0000 C   0  0  0  0  0  0  0  0  0  0  0  0
    5.1063    6.2754    0.0000 O   0  0  0  0  0  0  0  0  0  0  0  0
    6.9176    5.6426    0.0000 C   0  0  0  0  0  0  0  0  0  0  0  0
    8.0323    6.6465    0.0000 C   0  0  0  0  0  0  0  0  0  0  0  0
    7.7205    8.1135    0.0000 O   0  0  0  0  0  0  0  0  0  0  0  0
    8.8350    9.1174    0.0000 C   0  0  0  0  0  0  0  0  0  0  0  0
    9.4588    6.1828    0.0000 C   0  0  0  0  0  0  0  0  0  0  0  0
   10.5736    7.1866    0.0000 O   0  0  0  0  0  0  0  0  0  0  0  0
   10.2617    8.6537    0.0000 C   0  0  0  0  0  0  0  0  0  0  0  0
  1  2  1  0  0  0  0
  2  3  1  0  0  0  0
  3  4  2  0  0  0  0
  4  5  1  0  0  0  0
  5  6  1  0  0  0  0
  6  7  1  0  0  0  0
  7  8  1  0  0  0  0
  8  9  1  0  0  0  0
  9 10  1  0  0  0  0
 10 11  2  0  0  0  0
 11 12  1  0  0  0  0
 12 13  2  0  0  0  0
 13 14  1  0  0  0  0
 14 15  1  0  0  0  0
 15 16  1  0  0  0  0
 16 17  1  0  0  0  0
 13 17  1  0  0  0  0
 17 18  2  0  0  0  0
 10 18  1  0  0  0  0
  8 19  1  0  0  0  0
 19 20  1  0  0  0  0
 20 21  1  0  0  0  0
  7 21  1  0  0  0  0
 21 22  1  0  0  0  0
  5 23  2  0  0  0  0
 23 24  1  0  0  0  0
 24 25  1  0  0  0  0
 25 26  1  0  0  0  0
 24 27  2  0  0  0  0
  3 27  1  0  0  0  0
 27 28  1  0  0  0  0
 28 29  1  0  0  0  0
M  END
> <Molecule Name>
CHEMBL476708

> <IUPAC>
4-[(2H-1,3-benzodioxol-5-yl)methyl]-3-[(3,4,5-trimethoxyphenyl)methyl]oxolan-2-ol

> <ChEMBL_Data_Neisseria_g: Molecule_Preferred_NAME>
CLUSIN

> <ChEMBL_Data_Neisseria_g: NUM_RO5_VIOLATIONS>
0

> <ChEMBL_Data_Neisseria_g: Qualifier_for_MIC_Ng>
=

> <ChEMBL_Data_Neisseria_g: ASSAY_CHEMBLID>
CHEMBL1036073

> <ChEMBL_Data_Neisseria_g: DESCRIPTION_of_Assay_Ng>
Antimicrobial activity against Neisseria gonorrhoeae ATCC 49226 by antimicrobial susceptibility testing

> <ChEMBL_Data_Neisseria_g: PUBMED_ID>
14987061

> <ChEMBL_Data_Neisseria_g: YEAR>
2004

> <ChEMBL_Data_Neisseria_g: JOURNAL>
J. Nat. Prod.

> <ChEMBL_Data_Neisseria_g: VOLUME>
67

> <ChEMBL_Data_Neisseria_g: FIRST_PAGE>
214

> <ChEMBL_Data_Neisseria_g: MIC_vs_Neisseria_microg_per_mL>
32

> <ALogP>
3.376

> <Active>
0

> <Molecular_Weight>
402.438

$$$$

Generated by Molecular Materials Informatics

 26 28  0  0  0  0  0  0  0  0999 V2000
   -1.5868   -0.9909    0.0000 C   0  0  0  0  0  0  0  0  0  0  0  0
   -0.2877   -1.7409    0.0000 C   0  0  0  0  0  0  0  0  0  0  0  0
    1.0113   -0.9909    0.0000 N   0  0  0  0  0  0  0  0  0  0  0  0
    2.3103   -1.7409    0.0000 C   0  0  0  0  0  0  0  0  0  0  0  0
    2.3103   -3.2409    0.0000 O   0  0  0  0  0  0  0  0  0  0  0  0
    3.6093   -0.9909    0.0000 N   0  0  0  0  0  0  0  0  0  0  0  0
    4.9084   -1.7409    0.0000 C   0  0  0  0  0  0  0  0  0  0  0  0
    6.2788   -1.1309    0.0000 N   0  0  0  0  0  0  0  0  0  0  0  0
    7.2824   -2.2456    0.0000 C   0  0  0  0  0  0  0  0  0  0  0  0
    8.7824   -2.2456    0.0000 C   0  0  0  0  0  0  0  0  0  0  0  0
    9.5324   -3.5447    0.0000 C   0  0  0  0  0  0  0  0  0  0  0  0
    8.7824   -4.8436    0.0000 C   0  0  0  0  0  0  0  0  0  0  0  0
    7.2824   -4.8436    0.0000 C   0  0  0  0  0  0  0  0  0  0  0  0
    6.5324   -6.1427    0.0000 C   0  0  0  0  0  0  0  0  0  0  0  0
    5.0324   -6.1427    0.0000 O   0  0  0  0  0  0  0  0  0  0  0  0
    7.2824   -7.4418    0.0000 N   0  0  0  0  0  0  0  0  0  0  0  0
    8.7824   -7.4418    0.0000 C   0  0  0  0  0  0  0  0  0  0  0  0
    9.5324   -8.7407    0.0000 C   0  0  0  0  0  0  0  0  0  0  0  0
    6.5324   -3.5447    0.0000 N   0  0  0  0  0  0  0  0  0  0  0  0
    5.0652   -3.2327    0.0000 N   0  0  0  0  0  0  0  0  0  0  0  0
   11.0324   -3.5447    0.0000 C   0  0  0  0  0  0  0  0  0  0  0  0
   11.7824   -2.2456    0.0000 C   0  0  0  0  0  0  0  0  0  0  0  0
   13.2824   -2.2456    0.0000 C   0  0  0  0  0  0  0  0  0  0  0  0
   14.0324   -3.5447    0.0000 C   0  0  0  0  0  0  0  0  0  0  0  0
   13.2824   -4.8436    0.0000 N   0  0  0  0  0  0  0  0  0  0  0  0
   11.7824   -4.8436    0.0000 C   0  0  0  0  0  0  0  0  0  0  0  0
  1  2  1  0  0  0  0
  2  3  1  0  0  0  0
  3  4  1  0  0  0  0
  4  5  2  0  0  0  0
  4  6  1  0  0  0  0
  6  7  1  0  0  0  0
  7  8  1  0  0  0  0
  8  9  2  0  0  0  0
  9 10  1  0  0  0  0
 10 11  2  0  0  0  0
 11 12  1  0  0  0  0
 12 13  2  0  0  0  0
 13 14  1  0  0  0  0
 14 15  2  0  0  0  0
 14 16  1  0  0  0  0
 16 17  1  0  0  0  0
 17 18  1  0  0  0  0
 13 19  1  0  0  0  0
  9 19  1  0  0  0  0
 19 20  1  0  0  0  0
  7 20  2  0  0  0  0
 11 21  1  0  0  0  0
 21 22  2  0  0  0  0
 22 23  1  0  0  0  0
 23 24  2  0  0  0  0
 24 25  1  0  0  0  0
 25 26  2  0  0  0  0
 21 26  1  0  0  0  0
M  END
> <Molecule Name>
CHEMBL474194

> <IUPAC>
N-ethyl-2-[(ethylcarbamoyl)amino]-7-(pyridin-3-yl)-[1,2,4]triazolo[1,5-a]pyridine-5-carboxamide

> <ChEMBL_Data_Neisseria_g: NUM_RO5_VIOLATIONS>
0

> <ChEMBL_Data_Neisseria_g: Qualifier_for_MIC_Ng>
=

> <ChEMBL_Data_Neisseria_g: ASSAY_CHEMBLID>
CHEMBL1035604

> <ChEMBL_Data_Neisseria_g: DESCRIPTION_of_Assay_Ng>
Antimicrobial activity against Neisseria gonorrhoeae

> <ChEMBL_Data_Neisseria_g: PUBMED_ID>
19095445

> <ChEMBL_Data_Neisseria_g: YEAR>
2009

> <ChEMBL_Data_Neisseria_g: JOURNAL>
Bioorg. Med. Chem. Lett.

> <ChEMBL_Data_Neisseria_g: VOLUME>
19

> <ChEMBL_Data_Neisseria_g: FIRST_PAGE>
894

> <ChEMBL_Data_Neisseria_g: MIC_vs_Neisseria_microg_per_mL>
1

> <ALogP>
0.964

> <Active>
1

> <Molecular_Weight>
353.378

$$$$

Generated by Molecular Materials Informatics

 29 31  0  0  0  0  0  0  0  0999 V2000
    8.5170    0.4126    0.0000 C   0  0  0  0  0  0  0  0  0  0  0  0
    7.2179   -0.3374    0.0000 O   0  0  0  0  0  0  0  0  0  0  0  0
    5.9189    0.4126    0.0000 C   0  0  0  0  0  0  0  0  0  0  0  0
    4.6198   -0.3374    0.0000 C   0  0  0  0  0  0  0  0  0  0  0  0
    3.3209    0.4126    0.0000 C   0  0  0  0  0  0  0  0  0  0  0  0
    2.0218   -0.3374    0.0000 C   0  0  0  0  0  0  0  0  0  0  0  0
    2.0218   -1.8374    0.0000 C   0  0  0  0  0  0  0  0  0  0  0  0
    3.2352   -2.7190    0.0000 C   0  0  0  0  0  0  0  0  0  0  0  0
    2.7718   -4.1457    0.0000 O   0  0  0  0  0  0  0  0  0  0  0  0
    1.2718   -4.1457    0.0000 C   0  0  0  0  0  0  0  0  0  0  0  0
    0.3901   -5.3592    0.0000 O   0  0  0  0  0  0  0  0  0  0  0  0
    0.8083   -2.7190    0.0000 C   0  0  0  0  0  0  0  0  0  0  0  0
   -0.6184   -2.2556    0.0000 C   0  0  0  0  0  0  0  0  0  0  0  0
   -0.9302   -0.7883    0.0000 C   0  0  0  0  0  0  0  0  0  0  0  0
   -2.3568   -0.3248    0.0000 C   0  0  0  0  0  0  0  0  0  0  0  0
   -2.6686    1.1424    0.0000 C   0  0  0  0  0  0  0  0  0  0  0  0
   -4.0953    1.6059    0.0000 O   0  0  0  0  0  0  0  0  0  0  0  0
   -4.4071    3.0732    0.0000 C   0  0  0  0  0  0  0  0  0  0  0  0
   -1.5539    2.1461    0.0000 C   0  0  0  0  0  0  0  0  0  0  0  0
   -1.8659    3.6133    0.0000 O   0  0  0  0  0  0  0  0  0  0  0  0
   -3.2924    4.0768    0.0000 C   0  0  0  0  0  0  0  0  0  0  0  0
   -0.1273    1.6826    0.0000 C   0  0  0  0  0  0  0  0  0  0  0  0
    0.9874    2.6863    0.0000 O   0  0  0  0  0  0  0  0  0  0  0  0
    2.4139    2.2228    0.0000 C   0  0  0  0  0  0  0  0  0  0  0  0
    0.1845    0.2153    0.0000 C   0  0  0  0  0  0  0  0  0  0  0  0
    3.3209    1.9126    0.0000 C   0  0  0  0  0  0  0  0  0  0  0  0
    4.6198    2.6626    0.0000 C   0  0  0  0  0  0  0  0  0  0  0  0
    5.9189    1.9126    0.0000 C   0  0  0  0  0  0  0  0  0  0  0  0
    7.2179    2.6626    0.0000 O   0  0  0  0  0  0  0  0  0  0  0  0
  1  2  1  0  0  0  0
  2  3  1  0  0  0  0
  3  4  2  0  0  0  0
  4  5  1  0  0  0  0
  5  6  1  0  0  0  0
  7  6  1  1  0  0  0
  7  8  1  0  0  0  0
  8  9  1  0  0  0  0
  9 10  1  0  0  0  0
 10 11  2  0  0  0  0
 10 12  1  0  0  0  0
  7 12  1  0  0  0  0
 12 13  1  6  0  0  0
 13 14  1  0  0  0  0
 14 15  2  0  0  0  0
 15 16  1  0  0  0  0
 16 17  1  0  0  0  0
 17 18  1  0  0  0  0
 16 19  2  0  0  0  0
 19 20  1  0  0  0  0
 20 21  1  0  0  0  0
 19 22  1  0  0  0  0
 22 23  1  0  0  0  0
 23 24  1  0  0  0  0
 22 25  2  0  0  0  0
 14 25  1  0  0  0  0
  5 26  2  0  0  0  0
 26 27  1  0  0  0  0
 27 28  2  0  0  0  0
  3 28  1  0  0  0  0
 28 29  1  0  0  0  0
M  END
> <Molecule Name>
CHEMBL472017

> <IUPAC>
(3R,4R)-4-[(4-hydroxy-3-methoxyphenyl)methyl]-3-[(3,4,5-trimethoxyphenyl)methyl]oxolan-2-one

> <ChEMBL_Data_Neisseria_g: Molecule_Preferred_NAME>
HERNANOL

> <ChEMBL_Data_Neisseria_g: NUM_RO5_VIOLATIONS>
0

> <ChEMBL_Data_Neisseria_g: Qualifier_for_MIC_Ng>
=

> <ChEMBL_Data_Neisseria_g: ASSAY_CHEMBLID>
CHEMBL1036073

> <ChEMBL_Data_Neisseria_g: DESCRIPTION_of_Assay_Ng>
Antimicrobial activity against Neisseria gonorrhoeae ATCC 49226 by antimicrobial susceptibility testing

> <ChEMBL_Data_Neisseria_g: PUBMED_ID>
14987061

> <ChEMBL_Data_Neisseria_g: YEAR>
2004

> <ChEMBL_Data_Neisseria_g: JOURNAL>
J. Nat. Prod.

> <ChEMBL_Data_Neisseria_g: VOLUME>
67

> <ChEMBL_Data_Neisseria_g: FIRST_PAGE>
214

> <ChEMBL_Data_Neisseria_g: MIC_vs_Neisseria_microg_per_mL>
32

> <ALogP>
3.727

> <Active>
0

> <Molecular_Weight>
402.438

$$$$

Generated by Molecular Materials Informatics

 19 20  0  0  0  0  0  0  0  0999 V2000
   -0.7145    1.7999    0.0000 C   0  0  0  0  0  0  0  0  0  0  0  0
    0.5845    1.0499    0.0000 O   0  0  0  0  0  0  0  0  0  0  0  0
    0.5845   -0.4501    0.0000 C   0  0  0  0  0  0  0  0  0  0  0  0
    1.8836   -1.2001    0.0000 C   0  0  0  0  0  0  0  0  0  0  0  0
    1.8836   -2.7000    0.0000 C   0  0  0  0  0  0  0  0  0  0  0  0
    0.5845   -3.4500    0.0000 C   0  0  0  0  0  0  0  0  0  0  0  0
    0.5845   -4.9500    0.0000 C   0  0  0  0  0  0  0  0  0  0  0  0
   -0.7145   -5.7000    0.0000 C   0  0  0  0  0  0  0  0  0  0  0  0
   -0.7145   -7.2000    0.0000 C   0  0  0  0  0  0  0  0  0  0  0  0
    0.5845   -7.9500    0.0000 C   0  0  0  0  0  0  0  0  0  0  0  0
    0.5845   -9.4499    0.0000 C   0  0  0  0  0  0  0  0  0  0  0  0
    1.8836  -10.1999    0.0000 O   0  0  0  0  0  0  0  0  0  0  0  0
   -0.7145  -10.1999    0.0000 C   0  0  0  0  0  0  0  0  0  0  0  0
   -2.0134   -9.4499    0.0000 C   0  0  0  0  0  0  0  0  0  0  0  0
   -3.3125  -10.1999    0.0000 O   0  0  0  0  0  0  0  0  0  0  0  0
   -3.3125  -11.6999    0.0000 C   0  0  0  0  0  0  0  0  0  0  0  0
   -2.0134   -7.9500    0.0000 C   0  0  0  0  0  0  0  0  0  0  0  0
   -0.7145   -2.7000    0.0000 C   0  0  0  0  0  0  0  0  0  0  0  0
   -0.7145   -1.2001    0.0000 C   0  0  0  0  0  0  0  0  0  0  0  0
  1  2  1  0  0  0  0
  2  3  1  0  0  0  0
  3  4  2  0  0  0  0
  4  5  1  0  0  0  0
  5  6  2  0  0  0  0
  6  7  1  0  0  0  0
  7  8  2  0  0  0  0
  8  9  1  0  0  0  0
  9 10  2  0  0  0  0
 10 11  1  0  0  0  0
 11 12  1  0  0  0  0
 11 13  2  0  0  0  0
 13 14  1  0  0  0  0
 14 15  1  0  0  0  0
 15 16  1  0  0  0  0
 14 17  2  0  0  0  0
  9 17  1  0  0  0  0
  6 18  1  0  0  0  0
 18 19  2  0  0  0  0
  3 19  1  0  0  0  0
M  END
> <Molecule Name>
CHEMBL465542

> <IUPAC>
3-methoxy-5-[(E)-2-(4-methoxyphenyl)ethenyl]phenol

> <ChEMBL_Data_Neisseria_g: NUM_RO5_VIOLATIONS>
0

> <ChEMBL_Data_Neisseria_g: Qualifier_for_MIC_Ng>
=

> <ChEMBL_Data_Neisseria_g: ASSAY_CHEMBLID>
CHEMBL753617

> <ChEMBL_Data_Neisseria_g: DESCRIPTION_of_Assay_Ng>
The minimum inhibitory concentration (MIC) that inhibits all visible growth of the Neisseria gonorrhoeae (bacteria)

> <ChEMBL_Data_Neisseria_g: PUBMED_ID>
12036362

> <ChEMBL_Data_Neisseria_g: YEAR>
2002

> <ChEMBL_Data_Neisseria_g: JOURNAL>
J. Med. Chem.

> <ChEMBL_Data_Neisseria_g: VOLUME>
45

> <ChEMBL_Data_Neisseria_g: FIRST_PAGE>
2534

> <ChEMBL_Data_Neisseria_g: MIC_vs_Neisseria_microg_per_mL>
8

> <ALogP>
3.541

> <Active>
1

> <Molecular_Weight>
256.296

$$$$

Generated by Molecular Materials Informatics

 22 24  0  0  0  0  0  0  0  0999 V2000
    7.0128   -1.6009    0.0000 C   0  0  0  0  0  0  0  0  0  0  0  0
    5.5129   -1.6009    0.0000 C   0  0  0  0  0  0  0  0  0  0  0  0
    4.7629   -2.9000    0.0000 C   0  0  0  0  0  0  0  0  0  0  0  0
    4.7629   -0.3020    0.0000 C   0  0  0  0  0  0  0  0  0  0  0  0
    5.5129    0.9970    0.0000 C   0  0  0  0  0  0  0  0  0  0  0  0
    7.0128    0.9970    0.0000 O   0  0  0  0  0  0  0  0  0  0  0  0
    4.7629    2.2961    0.0000 C   0  0  0  0  0  0  0  0  0  0  0  0
    3.2629    2.2961    0.0000 C   0  0  0  0  0  0  0  0  0  0  0  0
    2.5129    0.9970    0.0000 C   0  0  0  0  0  0  0  0  0  0  0  0
    3.2629   -0.3020    0.0000 C   0  0  0  0  0  0  0  0  0  0  0  0
    2.5129   -1.6009    0.0000 C   0  0  0  0  0  0  0  0  0  0  0  0
    3.2629   -2.9000    0.0000 O   0  0  0  0  0  0  0  0  0  0  0  0
    1.0129   -1.6009    0.0000 C   0  0  0  0  0  0  0  0  0  0  0  0
    0.2629   -0.3020    0.0000 C   0  0  0  0  0  0  0  0  0  0  0  0
   -1.2370   -0.3020    0.0000 C   0  0  0  0  0  0  0  0  0  0  0  0
   -0.9767   -1.7791    0.0000 C   0  0  0  0  0  0  0  0  0  0  0  0
   -2.6466   -0.8149    0.0000 C   0  0  0  0  0  0  0  0  0  0  0  0
   -1.9870    0.9970    0.0000 C   0  0  0  0  0  0  0  0  0  0  0  0
   -1.2370    2.2961    0.0000 C   0  0  0  0  0  0  0  0  0  0  0  0
    0.2629    2.2961    0.0000 C   0  0  0  0  0  0  0  0  0  0  0  0
    1.0129    0.9970    0.0000 C   0  0  0  0  0  0  0  0  0  0  0  0
    1.7629    2.2961    0.0000 C   0  0  0  0  0  0  0  0  0  0  0  0
  1  2  1  0  0  0  0
  2  3  1  0  0  0  0
  2  4  1  0  0  0  0
  4  5  2  0  0  0  0
  5  6  1  0  0  0  0
  5  7  1  0  0  0  0
  7  8  2  0  0  0  0
  8  9  1  0  0  0  0
  9 10  2  0  0  0  0
  4 10  1  0  0  0  0
 10 11  1  0  0  0  0
 11 12  1  6  0  0  0
 11 13  1  0  0  0  0
 14 13  1  1  0  0  0
 14 15  1  0  0  0  0
 15 16  1  0  0  0  0
 15 17  1  0  0  0  0
 15 18  1  0  0  0  0
 18 19  1  0  0  0  0
 19 20  1  0  0  0  0
 20 21  1  0  0  0  0
  9 21  1  0  0  0  0
 14 21  1  0  0  0  0
 21 22  1  1  0  0  0
M  END
> <Molecule Name>
CHEMBL462950

> <IUPAC>
(4bS,8aS,10R)-4b,8,8-trimethyl-1-(propan-2-yl)-4b,5,6,7,8,8a,9,10-octahydrophenanthrene-2,10-diol

> <ChEMBL_Data_Neisseria_g: NUM_RO5_VIOLATIONS>
0

> <ChEMBL_Data_Neisseria_g: Qualifier_for_MIC_Ng>
=

> <ChEMBL_Data_Neisseria_g: ASSAY_CHEMBLID>
CHEMBL1008669

> <ChEMBL_Data_Neisseria_g: DESCRIPTION_of_Assay_Ng>
Antimicrobial activity against Neisseria gonorrhoeae ATCC 49226 at 64 ug/mL after 24 hrs by broth microdilution assay

> <ChEMBL_Data_Neisseria_g: PUBMED_ID>
15387645

> <ChEMBL_Data_Neisseria_g: YEAR>
2004

> <ChEMBL_Data_Neisseria_g: JOURNAL>
J. Nat. Prod.

> <ChEMBL_Data_Neisseria_g: VOLUME>
67

> <ChEMBL_Data_Neisseria_g: FIRST_PAGE>
1476

> <ChEMBL_Data_Neisseria_g: MIC_vs_Neisseria_microg_per_mL>
8

> <ALogP>
4.902

> <Active>
1

> <Molecular_Weight>
302.451

$$$$

Generated by Molecular Materials Informatics

 23 25  0  0  0  0  0  0  0  0999 V2000
    1.3911    4.7318    0.0000 C   0  0  0  0  0  0  0  0  0  0  0  0
    0.6411    3.4327    0.0000 O   0  0  0  0  0  0  0  0  0  0  0  0
    1.3911    2.1337    0.0000 C   0  0  0  0  0  0  0  0  0  0  0  0
    2.8911    2.1337    0.0000 C   0  0  0  0  0  0  0  0  0  0  0  0
    3.6411    0.8347    0.0000 C   0  0  0  0  0  0  0  0  0  0  0  0
    5.1411    0.8347    0.0000 C   0  0  0  0  0  0  0  0  0  0  0  0
    4.8806    2.3118    0.0000 C   0  0  0  0  0  0  0  0  0  0  0  0
    6.5506    1.3477    0.0000 C   0  0  0  0  0  0  0  0  0  0  0  0
    5.8911   -0.4643    0.0000 C   0  0  0  0  0  0  0  0  0  0  0  0
    5.1411   -1.7634    0.0000 C   0  0  0  0  0  0  0  0  0  0  0  0
    3.6411   -1.7634    0.0000 C   0  0  0  0  0  0  0  0  0  0  0  0
    2.8911   -0.4643    0.0000 C   0  0  0  0  0  0  0  0  0  0  0  0
    2.1411   -1.7634    0.0000 C   0  0  0  0  0  0  0  0  0  0  0  0
    1.3911   -0.4643    0.0000 C   0  0  0  0  0  0  0  0  0  0  0  0
    0.6411   -1.7634    0.0000 C   0  0  0  0  0  0  0  0  0  0  0  0
   -0.8589   -1.7634    0.0000 C   0  0  0  0  0  0  0  0  0  0  0  0
   -1.6089   -0.4643    0.0000 C   0  0  0  0  0  0  0  0  0  0  0  0
   -3.1089   -0.4643    0.0000 O   0  0  0  0  0  0  0  0  0  0  0  0
   -0.8589    0.8347    0.0000 C   0  0  0  0  0  0  0  0  0  0  0  0
   -1.6089    2.1337    0.0000 C   0  0  0  0  0  0  0  0  0  0  0  0
   -0.8589    3.4327    0.0000 C   0  0  0  0  0  0  0  0  0  0  0  0
   -3.1089    2.1337    0.0000 C   0  0  0  0  0  0  0  0  0  0  0  0
    0.6411    0.8347    0.0000 C   0  0  0  0  0  0  0  0  0  0  0  0
  1  2  1  0  0  0  0
  3  2  1  6  0  0  0
  3  4  1  0  0  0  0
  5  4  1  1  0  0  0
  5  6  1  0  0  0  0
  6  7  1  0  0  0  0
  6  8  1  0  0  0  0
  6  9  1  0  0  0  0
  9 10  1  0  0  0  0
 10 11  1  0  0  0  0
 11 12  1  0  0  0  0
  5 12  1  0  0  0  0
 12 13  1  1  0  0  0
 12 14  1  0  0  0  0
 14 15  2  0  0  0  0
 15 16  1  0  0  0  0
 16 17  2  0  0  0  0
 17 18  1  0  0  0  0
 17 19  1  0  0  0  0
 19 20  1  0  0  0  0
 20 21  1  0  0  0  0
 20 22  1  0  0  0  0
 19 23  2  0  0  0  0
  3 23  1  0  0  0  0
 14 23  1  0  0  0  0
M  END
> <Molecule Name>
CHEMBL462748

> <IUPAC>
(4bS,8aS,10R)-10-methoxy-4b,8,8-trimethyl-1-(propan-2-yl)-4b,5,6,7,8,8a,9,10-octahydrophenanthren-2-ol

> <ChEMBL_Data_Neisseria_g: NUM_RO5_VIOLATIONS>
1

> <ChEMBL_Data_Neisseria_g: Qualifier_for_MIC_Ng>
>

> <ChEMBL_Data_Neisseria_g: ASSAY_CHEMBLID>
CHEMBL997513

> <ChEMBL_Data_Neisseria_g: DESCRIPTION_of_Assay_Ng>
Antimicrobial activity against Neisseria gonorrhoeae ATCC 49226 after 24 hrs by broth microdilution assay in presence of 25% human serum

> <ChEMBL_Data_Neisseria_g: PUBMED_ID>
15387645

> <ChEMBL_Data_Neisseria_g: YEAR>
2004

> <ChEMBL_Data_Neisseria_g: JOURNAL>
J. Nat. Prod.

> <ChEMBL_Data_Neisseria_g: VOLUME>
67

> <ChEMBL_Data_Neisseria_g: FIRST_PAGE>
1476

> <ChEMBL_Data_Neisseria_g: MIC_vs_Neisseria_microg_per_mL>
64

> <ALogP>
5.31

> <Active>
0

> <Molecular_Weight>
316.478

$$$$

Generated by Molecular Materials Informatics

 22 23  0  0  0  0  0  0  0  0999 V2000
    5.3261    2.9250    0.0000 C   0  0  0  0  0  0  0  0  0  0  0  0
    4.0270    2.1750    0.0000 O   0  0  0  0  0  0  0  0  0  0  0  0
    4.0270    0.6750    0.0000 C   0  0  0  0  0  0  0  0  0  0  0  0
    2.7280   -0.0750    0.0000 C   0  0  0  0  0  0  0  0  0  0  0  0
    2.7280   -1.5750    0.0000 C   0  0  0  0  0  0  0  0  0  0  0  0
    4.0270   -2.3250    0.0000 C   0  0  0  0  0  0  0  0  0  0  0  0
    4.0270   -3.8250    0.0000 C   0  0  0  0  0  0  0  0  0  0  0  0
    2.7280   -4.5750    0.0000 C   0  0  0  0  0  0  0  0  0  0  0  0
    1.4289   -3.8250    0.0000 C   0  0  0  0  0  0  0  0  0  0  0  0
    0.1300   -4.5750    0.0000 C   0  0  0  0  0  0  0  0  0  0  0  0
   -1.1691   -3.8250    0.0000 C   0  0  0  0  0  0  0  0  0  0  0  0
   -2.4682   -4.5750    0.0000 Br  0  0  0  0  0  0  0  0  0  0  0  0
   -1.1691   -2.3250    0.0000 C   0  0  0  0  0  0  0  0  0  0  0  0
   -2.4682   -1.5750    0.0000 O   0  0  0  0  0  0  0  0  0  0  0  0
   -3.7671   -2.3250    0.0000 C   0  0  0  0  0  0  0  0  0  0  0  0
    0.1300   -1.5750    0.0000 C   0  0  0  0  0  0  0  0  0  0  0  0
    0.1300   -0.0750    0.0000 O   0  0  0  0  0  0  0  0  0  0  0  0
    1.4289    0.6750    0.0000 C   0  0  0  0  0  0  0  0  0  0  0  0
    1.4289   -2.3250    0.0000 C   0  0  0  0  0  0  0  0  0  0  0  0
    5.3261   -1.5750    0.0000 C   0  0  0  0  0  0  0  0  0  0  0  0
    5.3261   -0.0750    0.0000 C   0  0  0  0  0  0  0  0  0  0  0  0
    6.6250    0.6750    0.0000 O   0  0  0  0  0  0  0  0  0  0  0  0
  1  2  1  0  0  0  0
  2  3  1  0  0  0  0
  3  4  2  0  0  0  0
  4  5  1  0  0  0  0
  5  6  2  0  0  0  0
  6  7  1  0  0  0  0
  7  8  2  0  0  0  0
  8  9  1  0  0  0  0
  9 10  2  0  0  0  0
 10 11  1  0  0  0  0
 11 12  1  0  0  0  0
 11 13  2  0  0  0  0
 13 14  1  0  0  0  0
 14 15  1  0  0  0  0
 13 16  1  0  0  0  0
 16 17  1  0  0  0  0
 17 18  1  0  0  0  0
 16 19  2  0  0  0  0
  9 19  1  0  0  0  0
  6 20  1  0  0  0  0
 20 21  2  0  0  0  0
  3 21  1  0  0  0  0
 21 22  1  0  0  0  0
M  END
> <Molecule Name>
CHEMBL459123

> <IUPAC>
5-[(Z)-2-(3-bromo-4,5-dimethoxyphenyl)ethenyl]-2-methoxyphenol

> <ChEMBL_Data_Neisseria_g: NUM_RO5_VIOLATIONS>
0

> <ChEMBL_Data_Neisseria_g: Qualifier_for_MIC_Ng>
=

> <ChEMBL_Data_Neisseria_g: ASSAY_CHEMBLID>
CHEMBL997429

> <ChEMBL_Data_Neisseria_g: DESCRIPTION_of_Assay_Ng>
Antimicrobial activity against Neisseria gonorrhoeae ATCC 49226 after 24 hrs by broth microdilution assay

> <ChEMBL_Data_Neisseria_g: PUBMED_ID>
16252907

> <ChEMBL_Data_Neisseria_g: YEAR>
2005

> <ChEMBL_Data_Neisseria_g: JOURNAL>
J. Nat. Prod.

> <ChEMBL_Data_Neisseria_g: VOLUME>
68

> <ChEMBL_Data_Neisseria_g: FIRST_PAGE>
1450

> <ChEMBL_Data_Neisseria_g: MIC_vs_Neisseria_microg_per_mL>
32

> <ALogP>
4.273

> <Active>
0

> <Molecular_Weight>
365.218

$$$$

Generated by Molecular Materials Informatics

 26 27  0  0  0  0  0  0  0  0999 V2000
    2.3905    2.7563    0.0000 C   0  0  0  0  0  0  0  0  0  0  0  0
    3.6895    2.0063    0.0000 O   0  0  0  0  0  0  0  0  0  0  0  0
    3.6895    0.5063    0.0000 C   0  0  0  0  0  0  0  0  0  0  0  0
    2.3905   -0.2437    0.0000 C   0  0  0  0  0  0  0  0  0  0  0  0
    2.3905   -1.7437    0.0000 C   0  0  0  0  0  0  0  0  0  0  0  0
    3.6895   -2.4938    0.0000 C   0  0  0  0  0  0  0  0  0  0  0  0
    3.6895   -3.9937    0.0000 C   0  0  0  0  0  0  0  0  0  0  0  0
    2.3905   -4.7438    0.0000 C   0  0  0  0  0  0  0  0  0  0  0  0
    1.0914   -3.9937    0.0000 C   0  0  0  0  0  0  0  0  0  0  0  0
   -0.2075   -4.7438    0.0000 C   0  0  0  0  0  0  0  0  0  0  0  0
   -1.5066   -3.9937    0.0000 C   0  0  0  0  0  0  0  0  0  0  0  0
   -2.8057   -4.7438    0.0000 F   0  0  0  0  0  0  0  0  0  0  0  0
   -1.5066   -2.4938    0.0000 C   0  0  0  0  0  0  0  0  0  0  0  0
   -2.8057   -1.7437    0.0000 O   0  0  0  0  0  0  0  0  0  0  0  0
   -4.1046   -2.4938    0.0000 C   0  0  0  0  0  0  0  0  0  0  0  0
   -0.2075   -1.7437    0.0000 C   0  0  0  0  0  0  0  0  0  0  0  0
   -0.2075   -0.2437    0.0000 O   0  0  0  0  0  0  0  0  0  0  0  0
    1.0914    0.5063    0.0000 C   0  0  0  0  0  0  0  0  0  0  0  0
    1.0914   -2.4938    0.0000 C   0  0  0  0  0  0  0  0  0  0  0  0
    4.9886   -1.7437    0.0000 C   0  0  0  0  0  0  0  0  0  0  0  0
    4.9886   -0.2437    0.0000 C   0  0  0  0  0  0  0  0  0  0  0  0
    6.2875    0.5063    0.0000 O   0  0  0  0  0  0  0  0  0  0  0  0
    6.2875    2.0063    0.0000 P   0  0  0  0  0  0  0  0  0  0  0  0
    4.7875    2.0063    0.0000 O   0  0  0  0  0  0  0  0  0  0  0  0
    6.2875    3.5062    0.0000 O   0  5  0  0  0  0  0  0  0  0  0  0
    7.7875    2.0063    0.0000 O   0  5  0  0  0  0  0  0  0  0  0  0
  1  2  1  0  0  0  0
  2  3  1  0  0  0  0
  3  4  2  0  0  0  0
  4  5  1  0  0  0  0
  5  6  2  0  0  0  0
  6  7  1  0  0  0  0
  7  8  2  0  0  0  0
  8  9  1  0  0  0  0
  9 10  2  0  0  0  0
 10 11  1  0  0  0  0
 11 12  1  0  0  0  0
 11 13  2  0  0  0  0
 13 14  1  0  0  0  0
 14 15  1  0  0  0  0
 13 16  1  0  0  0  0
 16 17  1  0  0  0  0
 17 18  1  0  0  0  0
 16 19  2  0  0  0  0
  9 19  1  0  0  0  0
  6 20  1  0  0  0  0
 20 21  2  0  0  0  0
  3 21  1  0  0  0  0
 21 22  1  0  0  0  0
 22 23  1  0  0  0  0
 23 24  2  0  0  0  0
 23 25  1  0  0  0  0
 23 26  1  0  0  0  0
M  CHG  2  25  -1  26  -1
M  END
> <Molecule Name>
CHEMBL459057

> <IUPAC>
disodium {5-[(Z)-2-(3-fluoro-4,5-dimethoxyphenyl)ethenyl]-2-methoxyphenoxy}phosphonic acid

> <ChEMBL_Data_Neisseria_g: NUM_RO5_VIOLATIONS>
0

> <ChEMBL_Data_Neisseria_g: Qualifier_for_MIC_Ng>
=

> <ChEMBL_Data_Neisseria_g: ASSAY_CHEMBLID>
CHEMBL997429

> <ChEMBL_Data_Neisseria_g: DESCRIPTION_of_Assay_Ng>
Antimicrobial activity against Neisseria gonorrhoeae ATCC 49226 after 24 hrs by broth microdilution assay

> <ChEMBL_Data_Neisseria_g: PUBMED_ID>
16252907

> <ChEMBL_Data_Neisseria_g: YEAR>
2005

> <ChEMBL_Data_Neisseria_g: JOURNAL>
J. Nat. Prod.

> <ChEMBL_Data_Neisseria_g: VOLUME>
68

> <ChEMBL_Data_Neisseria_g: FIRST_PAGE>
1450

> <ChEMBL_Data_Neisseria_g: MIC_vs_Neisseria_microg_per_mL>
16

> <ALogP>
1.298

> <Active>
0

> <Molecular_Weight>
382.277

$$$$

Generated by Molecular Materials Informatics

 22 23  0  0  0  0  0  0  0  0999 V2000
    5.3261    2.9250    0.0000 C   0  0  0  0  0  0  0  0  0  0  0  0
    4.0270    2.1750    0.0000 O   0  0  0  0  0  0  0  0  0  0  0  0
    4.0270    0.6750    0.0000 C   0  0  0  0  0  0  0  0  0  0  0  0
    2.7280   -0.0750    0.0000 C   0  0  0  0  0  0  0  0  0  0  0  0
    2.7280   -1.5750    0.0000 C   0  0  0  0  0  0  0  0  0  0  0  0
    4.0270   -2.3250    0.0000 C   0  0  0  0  0  0  0  0  0  0  0  0
    4.0270   -3.8250    0.0000 C   0  0  0  0  0  0  0  0  0  0  0  0
    2.7280   -4.5750    0.0000 C   0  0  0  0  0  0  0  0  0  0  0  0
    1.4289   -3.8250    0.0000 C   0  0  0  0  0  0  0  0  0  0  0  0
    0.1300   -4.5750    0.0000 C   0  0  0  0  0  0  0  0  0  0  0  0
   -1.1691   -3.8250    0.0000 C   0  0  0  0  0  0  0  0  0  0  0  0
   -2.4682   -4.5750    0.0000 Cl  0  0  0  0  0  0  0  0  0  0  0  0
   -1.1691   -2.3250    0.0000 C   0  0  0  0  0  0  0  0  0  0  0  0
   -2.4682   -1.5750    0.0000 O   0  0  0  0  0  0  0  0  0  0  0  0
   -3.7671   -2.3250    0.0000 C   0  0  0  0  0  0  0  0  0  0  0  0
    0.1300   -1.5750    0.0000 C   0  0  0  0  0  0  0  0  0  0  0  0
    0.1300   -0.0750    0.0000 O   0  0  0  0  0  0  0  0  0  0  0  0
    1.4289    0.6750    0.0000 C   0  0  0  0  0  0  0  0  0  0  0  0
    1.4289   -2.3250    0.0000 C   0  0  0  0  0  0  0  0  0  0  0  0
    5.3261   -1.5750    0.0000 C   0  0  0  0  0  0  0  0  0  0  0  0
    5.3261   -0.0750    0.0000 C   0  0  0  0  0  0  0  0  0  0  0  0
    6.6250    0.6750    0.0000 O   0  0  0  0  0  0  0  0  0  0  0  0
  1  2  1  0  0  0  0
  2  3  1  0  0  0  0
  3  4  2  0  0  0  0
  4  5  1  0  0  0  0
  5  6  2  0  0  0  0
  6  7  1  0  0  0  0
  7  8  2  0  0  0  0
  8  9  1  0  0  0  0
  9 10  2  0  0  0  0
 10 11  1  0  0  0  0
 11 12  1  0  0  0  0
 11 13  2  0  0  0  0
 13 14  1  0  0  0  0
 14 15  1  0  0  0  0
 13 16  1  0  0  0  0
 16 17  1  0  0  0  0
 17 18  1  0  0  0  0
 16 19  2  0  0  0  0
  9 19  1  0  0  0  0
  6 20  1  0  0  0  0
 20 21  2  0  0  0  0
  3 21  1  0  0  0  0
 21 22  1  0  0  0  0
M  END
> <Molecule Name>
CHEMBL458915

> <IUPAC>
5-[(Z)-2-(3-chloro-4,5-dimethoxyphenyl)ethenyl]-2-methoxyphenol

> <ChEMBL_Data_Neisseria_g: NUM_RO5_VIOLATIONS>
0

> <ChEMBL_Data_Neisseria_g: Qualifier_for_MIC_Ng>
=

> <ChEMBL_Data_Neisseria_g: ASSAY_CHEMBLID>
CHEMBL997429

> <ChEMBL_Data_Neisseria_g: DESCRIPTION_of_Assay_Ng>
Antimicrobial activity against Neisseria gonorrhoeae ATCC 49226 after 24 hrs by broth microdilution assay

> <ChEMBL_Data_Neisseria_g: PUBMED_ID>
16252907

> <ChEMBL_Data_Neisseria_g: YEAR>
2005

> <ChEMBL_Data_Neisseria_g: JOURNAL>
J. Nat. Prod.

> <ChEMBL_Data_Neisseria_g: VOLUME>
68

> <ChEMBL_Data_Neisseria_g: FIRST_PAGE>
1450

> <ChEMBL_Data_Neisseria_g: MIC_vs_Neisseria_microg_per_mL>
16

> <ALogP>
4.189

> <Active>
0

> <Molecular_Weight>
320.767

$$$$

Generated by Molecular Materials Informatics

 26 28  0  0  0  0  0  0  0  0999 V2000
    2.4146    7.0344    0.0000 C   0  0  0  0  0  0  0  0  0  0  0  0
    2.4146    5.5344    0.0000 C   0  0  0  0  0  0  0  0  0  0  0  0
    1.1157    4.7844    0.0000 C   0  0  0  0  0  0  0  0  0  0  0  0
    3.7136    4.7844    0.0000 O   0  0  0  0  0  0  0  0  0  0  0  0
    3.7136    3.2845    0.0000 C   0  0  0  0  0  0  0  0  0  0  0  0
    5.0651    2.6336    0.0000 C   0  0  0  0  0  0  0  0  0  0  0  0
    5.3989    1.1712    0.0000 C   0  0  0  0  0  0  0  0  0  0  0  0
    6.8822    0.9477    0.0000 C   0  0  0  0  0  0  0  0  0  0  0  0
    6.8447    2.4472    0.0000 C   0  0  0  0  0  0  0  0  0  0  0  0
    8.3523    1.2448    0.0000 C   0  0  0  0  0  0  0  0  0  0  0  0
    7.4302   -0.4486    0.0000 C   0  0  0  0  0  0  0  0  0  0  0  0
    6.4949   -1.6213    0.0000 C   0  0  0  0  0  0  0  0  0  0  0  0
    5.0116   -1.3979    0.0000 C   0  0  0  0  0  0  0  0  0  0  0  0
    4.4636   -0.0015    0.0000 C   0  0  0  0  0  0  0  0  0  0  0  0
    3.6187   -1.2408    0.0000 C   0  0  0  0  0  0  0  0  0  0  0  0
    2.9636   -0.0015    0.0000 C   0  0  0  0  0  0  0  0  0  0  0  0
    2.4156   -1.3979    0.0000 C   0  0  0  0  0  0  0  0  0  0  0  0
    0.9324   -1.6213    0.0000 C   0  0  0  0  0  0  0  0  0  0  0  0
   -0.0029   -0.4486    0.0000 C   0  0  0  0  0  0  0  0  0  0  0  0
   -1.4862   -0.6722    0.0000 O   0  0  0  0  0  0  0  0  0  0  0  0
    0.5451    0.9477    0.0000 C   0  0  0  0  0  0  0  0  0  0  0  0
   -0.3900    2.1205    0.0000 C   0  0  0  0  0  0  0  0  0  0  0  0
    0.1580    3.5166    0.0000 C   0  0  0  0  0  0  0  0  0  0  0  0
   -1.8732    1.8968    0.0000 C   0  0  0  0  0  0  0  0  0  0  0  0
    2.0284    1.1712    0.0000 C   0  0  0  0  0  0  0  0  0  0  0  0
    2.3622    2.6336    0.0000 O   0  0  0  0  0  0  0  0  0  0  0  0
  1  2  1  0  0  0  0
  2  3  1  0  0  0  0
  2  4  1  0  0  0  0
  5  4  1  6  0  0  0
  5  6  1  0  0  0  0
  7  6  1  1  0  0  0
  7  8  1  0  0  0  0
  8  9  1  0  0  0  0
  8 10  1  0  0  0  0
  8 11  1  0  0  0  0
 11 12  1  0  0  0  0
 12 13  1  0  0  0  0
 13 14  1  0  0  0  0
  7 14  1  0  0  0  0
 14 15  1  1  0  0  0
 14 16  1  0  0  0  0
 16 17  2  0  0  0  0
 17 18  1  0  0  0  0
 18 19  2  0  0  0  0
 19 20  1  0  0  0  0
 19 21  1  0  0  0  0
 21 22  1  0  0  0  0
 22 23  1  0  0  0  0
 22 24  1  0  0  0  0
 21 25  2  0  0  0  0
 16 25  1  0  0  0  0
 25 26  1  0  0  0  0
  5 26  1  0  0  0  0
M  END
> <Molecule Name>
CHEMBL458910

> <IUPAC>
(1S,9S,11S)-1,12,12-trimethyl-6-(propan-2-yl)-9-(propan-2-yloxy)-8-oxatricyclo[9.4.0.0,]pentadeca-2,4,6-trien-5-ol

> <ChEMBL_Data_Neisseria_g: Molecule_Preferred_NAME>
NOOTKASTATIN 2

> <ChEMBL_Data_Neisseria_g: NUM_RO5_VIOLATIONS>
1

> <ChEMBL_Data_Neisseria_g: Qualifier_for_MIC_Ng>
>

> <ChEMBL_Data_Neisseria_g: ASSAY_CHEMBLID>
CHEMBL997513

> <ChEMBL_Data_Neisseria_g: DESCRIPTION_of_Assay_Ng>
Antimicrobial activity against Neisseria gonorrhoeae ATCC 49226 after 24 hrs by broth microdilution assay in presence of 25% human serum

> <ChEMBL_Data_Neisseria_g: PUBMED_ID>
15387645

> <ChEMBL_Data_Neisseria_g: YEAR>
2004

> <ChEMBL_Data_Neisseria_g: JOURNAL>
J. Nat. Prod.

> <ChEMBL_Data_Neisseria_g: VOLUME>
67

> <ChEMBL_Data_Neisseria_g: FIRST_PAGE>
1476

> <ChEMBL_Data_Neisseria_g: MIC_vs_Neisseria_microg_per_mL>
64

> <ALogP>
5.997

> <Active>
0

> <Molecular_Weight>
360.53

$$$$

Generated by Molecular Materials Informatics

 22 23  0  0  0  0  0  0  0  0999 V2000
    5.3261    2.9250    0.0000 C   0  0  0  0  0  0  0  0  0  0  0  0
    4.0270    2.1750    0.0000 O   0  0  0  0  0  0  0  0  0  0  0  0
    4.0270    0.6750    0.0000 C   0  0  0  0  0  0  0  0  0  0  0  0
    2.7280   -0.0750    0.0000 C   0  0  0  0  0  0  0  0  0  0  0  0
    2.7280   -1.5750    0.0000 C   0  0  0  0  0  0  0  0  0  0  0  0
    4.0270   -2.3250    0.0000 C   0  0  0  0  0  0  0  0  0  0  0  0
    4.0270   -3.8250    0.0000 C   0  0  0  0  0  0  0  0  0  0  0  0
    2.7280   -4.5750    0.0000 C   0  0  0  0  0  0  0  0  0  0  0  0
    1.4289   -3.8250    0.0000 C   0  0  0  0  0  0  0  0  0  0  0  0
    0.1300   -4.5750    0.0000 C   0  0  0  0  0  0  0  0  0  0  0  0
   -1.1691   -3.8250    0.0000 C   0  0  0  0  0  0  0  0  0  0  0  0
   -2.4682   -4.5750    0.0000 F   0  0  0  0  0  0  0  0  0  0  0  0
   -1.1691   -2.3250    0.0000 C   0  0  0  0  0  0  0  0  0  0  0  0
   -2.4682   -1.5750    0.0000 O   0  0  0  0  0  0  0  0  0  0  0  0
   -3.7671   -2.3250    0.0000 C   0  0  0  0  0  0  0  0  0  0  0  0
    0.1300   -1.5750    0.0000 C   0  0  0  0  0  0  0  0  0  0  0  0
    0.1300   -0.0750    0.0000 O   0  0  0  0  0  0  0  0  0  0  0  0
    1.4289    0.6750    0.0000 C   0  0  0  0  0  0  0  0  0  0  0  0
    1.4289   -2.3250    0.0000 C   0  0  0  0  0  0  0  0  0  0  0  0
    5.3261   -1.5750    0.0000 C   0  0  0  0  0  0  0  0  0  0  0  0
    5.3261   -0.0750    0.0000 C   0  0  0  0  0  0  0  0  0  0  0  0
    6.6250    0.6750    0.0000 O   0  0  0  0  0  0  0  0  0  0  0  0
  1  2  1  0  0  0  0
  2  3  1  0  0  0  0
  3  4  2  0  0  0  0
  4  5  1  0  0  0  0
  5  6  2  0  0  0  0
  6  7  1  0  0  0  0
  7  8  2  0  0  0  0
  8  9  1  0  0  0  0
  9 10  2  0  0  0  0
 10 11  1  0  0  0  0
 11 12  1  0  0  0  0
 11 13  2  0  0  0  0
 13 14  1  0  0  0  0
 14 15  1  0  0  0  0
 13 16  1  0  0  0  0
 16 17  1  0  0  0  0
 17 18  1  0  0  0  0
 16 19  2  0  0  0  0
  9 19  1  0  0  0  0
  6 20  1  0  0  0  0
 20 21  2  0  0  0  0
  3 21  1  0  0  0  0
 21 22  1  0  0  0  0
M  END
> <Molecule Name>
CHEMBL456744

> <IUPAC>
5-[(Z)-2-(3-fluoro-4,5-dimethoxyphenyl)ethenyl]-2-methoxyphenol

> <ChEMBL_Data_Neisseria_g: Molecule_Preferred_NAME>
FLUORCOMBSTATIN

> <ChEMBL_Data_Neisseria_g: NUM_RO5_VIOLATIONS>
0

> <ChEMBL_Data_Neisseria_g: Qualifier_for_MIC_Ng>
=

> <ChEMBL_Data_Neisseria_g: ASSAY_CHEMBLID>
CHEMBL997429

> <ChEMBL_Data_Neisseria_g: DESCRIPTION_of_Assay_Ng>
Antimicrobial activity against Neisseria gonorrhoeae ATCC 49226 after 24 hrs by broth microdilution assay

> <ChEMBL_Data_Neisseria_g: PUBMED_ID>
16252907

> <ChEMBL_Data_Neisseria_g: YEAR>
2005

> <ChEMBL_Data_Neisseria_g: JOURNAL>
J. Nat. Prod.

> <ChEMBL_Data_Neisseria_g: VOLUME>
68

> <ChEMBL_Data_Neisseria_g: FIRST_PAGE>
1450

> <ChEMBL_Data_Neisseria_g: MIC_vs_Neisseria_microg_per_mL>
32

> <ALogP>
3.73

> <Active>
0

> <Molecular_Weight>
304.313

$$$$

Generated by Molecular Materials Informatics

 34 37  0  0  0  0  0  0  0  0999 V2000
   -6.4704   -3.7030    0.0000 C   0  0  0  0  0  0  0  0  0  0  0  0
   -4.9704   -3.7030    0.0000 O   0  0  0  0  0  0  0  0  0  0  0  0
   -4.2204   -2.4039    0.0000 C   0  0  0  0  0  0  0  0  0  0  0  0
   -2.7205   -2.4039    0.0000 C   0  0  0  0  0  0  0  0  0  0  0  0
   -1.9705   -1.1049    0.0000 C   0  0  0  0  0  0  0  0  0  0  0  0
   -1.9705   -3.7030    0.0000 C   0  0  0  0  0  0  0  0  0  0  0  0
   -2.7205   -5.0020    0.0000 O   0  0  0  0  0  0  0  0  0  0  0  0
   -0.4705   -3.7030    0.0000 N   0  0  0  0  0  0  0  0  0  0  0  0
    0.2795   -2.4039    0.0000 C   0  0  0  0  0  0  0  0  0  0  0  0
   -0.4705   -1.1049    0.0000 C   0  0  0  0  0  0  0  0  0  0  0  0
    0.2795    0.1940    0.0000 C   0  0  0  0  0  0  0  0  0  0  0  0
   -0.4705    1.4931    0.0000 C   0  0  0  0  0  0  0  0  0  0  0  0
    0.2795    2.7921    0.0000 C   0  0  0  0  0  0  0  0  0  0  0  0
    1.7794    2.7921    0.0000 C   0  0  0  0  0  0  0  0  0  0  0  0
    2.5294    4.0910    0.0000 C   0  0  0  0  0  0  0  0  0  0  0  0
    4.0294    4.0910    0.0000 C   0  0  0  0  0  0  0  0  0  0  0  0
    4.7793    5.3900    0.0000 O   0  0  0  0  0  0  0  0  0  0  0  0
    6.2793    5.3900    0.0000 C   0  0  0  0  0  0  0  0  0  0  0  0
    4.7793    2.7921    0.0000 C   0  0  0  0  0  0  0  0  0  0  0  0
    6.2466    2.4801    0.0000 O   0  0  0  0  0  0  0  0  0  0  0  0
    6.4033    0.9885    0.0000 C   0  0  0  0  0  0  0  0  0  0  0  0
    5.0330    0.3784    0.0000 O   0  0  0  0  0  0  0  0  0  0  0  0
    4.0294    1.4931    0.0000 C   0  0  0  0  0  0  0  0  0  0  0  0
    2.5294    1.4931    0.0000 C   0  0  0  0  0  0  0  0  0  0  0  0
    1.7794    0.1940    0.0000 C   0  0  0  0  0  0  0  0  0  0  0  0
    2.5294   -1.1049    0.0000 C   0  0  0  0  0  0  0  0  0  0  0  0
    1.7794   -2.4039    0.0000 C   0  0  0  0  0  0  0  0  0  0  0  0
    2.5294   -3.7030    0.0000 O   0  0  0  0  0  0  0  0  0  0  0  0
    1.7794   -5.0020    0.0000 C   0  0  0  0  0  0  0  0  0  0  0  0
   -4.9704   -1.1049    0.0000 C   0  0  0  0  0  0  0  0  0  0  0  0
   -6.4622   -0.9482    0.0000 C   0  0  0  0  0  0  0  0  0  0  0  0
   -6.7740    0.5191    0.0000 C   0  0  0  0  0  0  0  0  0  0  0  0
   -5.4749    1.2691    0.0000 C   0  0  0  0  0  0  0  0  0  0  0  0
   -4.3604    0.2653    0.0000 N   0  0  0  0  0  0  0  0  0  0  0  0
  1  2  1  0  0  0  0
  3  2  1  1  0  0  0
  3  4  1  0  0  0  0
  4  5  1  1  0  0  0
  4  6  1  0  0  0  0
  6  7  2  0  0  0  0
  6  8  1  0  0  0  0
  8  9  1  0  0  0  0
  9 10  2  0  0  0  0
 10 11  1  0  0  0  0
 11 12  1  0  0  0  0
 12 13  2  0  0  0  0
 13 14  1  0  0  0  0
 14 15  2  0  0  0  0
 15 16  1  0  0  0  0
 16 17  1  0  0  0  0
 17 18  1  0  0  0  0
 16 19  2  0  0  0  0
 19 20  1  0  0  0  0
 20 21  1  0  0  0  0
 21 22  1  0  0  0  0
 22 23  1  0  0  0  0
 19 23  1  0  0  0  0
 23 24  2  0  0  0  0
 14 24  1  0  0  0  0
 11 25  2  0  0  0  0
 25 26  1  0  0  0  0
 26 27  2  0  0  0  0
  9 27  1  0  0  0  0
 27 28  1  0  0  0  0
 28 29  1  0  0  0  0
 30  3  1  6  0  0  0
 30 31  1  0  0  0  0
 31 32  1  0  0  0  0
 32 33  1  0  0  0  0
 33 34  1  0  0  0  0
 30 34  1  0  0  0  0
M  END
> <Molecule Name>
CHEMBL455092

> <IUPAC>
(2R,3R)-3-methoxy-N-{2-methoxy-5-[(Z)-2-(7-methoxy-2H-1,3-benzodioxol-5-yl)ethenyl]phenyl}-2-methyl-3-[(2S)-pyrrolidin-2-yl]propanamide; trifluoroacetic acid

> <ChEMBL_Data_Neisseria_g: NUM_RO5_VIOLATIONS>
0

> <ChEMBL_Data_Neisseria_g: Qualifier_for_MIC_Ng>
=

> <ChEMBL_Data_Neisseria_g: ASSAY_CHEMBLID>
CHEMBL1006824

> <ChEMBL_Data_Neisseria_g: DESCRIPTION_of_Assay_Ng>
Antimicrobial activity against Neisseria gonorrhoeae ATCC 49226 by broth microdilution assay

> <ChEMBL_Data_Neisseria_g: PUBMED_ID>
16124759

> <ChEMBL_Data_Neisseria_g: YEAR>
2005

> <ChEMBL_Data_Neisseria_g: JOURNAL>
J. Nat. Prod.

> <ChEMBL_Data_Neisseria_g: VOLUME>
68

> <ChEMBL_Data_Neisseria_g: FIRST_PAGE>
1191

> <ChEMBL_Data_Neisseria_g: MIC_vs_Neisseria_microg_per_mL>
16

> <ALogP>
1.419

> <Active>
0

> <Molecular_Weight>
468.542

$$$$

Generated by Molecular Materials Informatics

 22 23  0  0  0  0  0  0  0  0999 V2000
   -0.1623    1.9687    0.0000 C   0  0  0  0  0  0  0  0  0  0  0  0
    1.1366    1.2187    0.0000 O   0  0  0  0  0  0  0  0  0  0  0  0
    1.1366   -0.2813    0.0000 C   0  0  0  0  0  0  0  0  0  0  0  0
    2.4357   -1.0313    0.0000 C   0  0  0  0  0  0  0  0  0  0  0  0
    2.4357   -2.5313    0.0000 C   0  0  0  0  0  0  0  0  0  0  0  0
    1.1366   -3.2813    0.0000 C   0  0  0  0  0  0  0  0  0  0  0  0
    1.1366   -4.7812    0.0000 C   0  0  0  0  0  0  0  0  0  0  0  0
    2.4357   -5.5312    0.0000 C   0  0  0  0  0  0  0  0  0  0  0  0
    2.4357   -7.0312    0.0000 C   0  0  0  0  0  0  0  0  0  0  0  0
    3.7347   -7.7812    0.0000 C   0  0  0  0  0  0  0  0  0  0  0  0
    3.7347   -9.2812    0.0000 C   0  0  0  0  0  0  0  0  0  0  0  0
    5.0338  -10.0312    0.0000 F   0  0  0  0  0  0  0  0  0  0  0  0
    2.4357  -10.0312    0.0000 C   0  0  0  0  0  0  0  0  0  0  0  0
    2.4357  -11.5312    0.0000 O   0  0  0  0  0  0  0  0  0  0  0  0
    3.7347  -12.2812    0.0000 C   0  0  0  0  0  0  0  0  0  0  0  0
    1.1366   -9.2812    0.0000 C   0  0  0  0  0  0  0  0  0  0  0  0
   -0.1623  -10.0312    0.0000 O   0  0  0  0  0  0  0  0  0  0  0  0
   -1.4614   -9.2812    0.0000 C   0  0  0  0  0  0  0  0  0  0  0  0
    1.1366   -7.7812    0.0000 C   0  0  0  0  0  0  0  0  0  0  0  0
   -0.1623   -2.5313    0.0000 C   0  0  0  0  0  0  0  0  0  0  0  0
   -0.1623   -1.0313    0.0000 C   0  0  0  0  0  0  0  0  0  0  0  0
   -1.4614   -0.2813    0.0000 O   0  0  0  0  0  0  0  0  0  0  0  0
  1  2  1  0  0  0  0
  2  3  1  0  0  0  0
  3  4  2  0  0  0  0
  4  5  1  0  0  0  0
  5  6  2  0  0  0  0
  6  7  1  0  0  0  0
  7  8  2  0  0  0  0
  8  9  1  0  0  0  0
  9 10  2  0  0  0  0
 10 11  1  0  0  0  0
 11 12  1  0  0  0  0
 11 13  2  0  0  0  0
 13 14  1  0  0  0  0
 14 15  1  0  0  0  0
 13 16  1  0  0  0  0
 16 17  1  0  0  0  0
 17 18  1  0  0  0  0
 16 19  2  0  0  0  0
  9 19  1  0  0  0  0
  6 20  1  0  0  0  0
 20 21  2  0  0  0  0
  3 21  1  0  0  0  0
 21 22  1  0  0  0  0
M  END
> <Molecule Name>
CHEMBL451055

> <IUPAC>
5-[(E)-2-(3-fluoro-4,5-dimethoxyphenyl)ethenyl]-2-methoxyphenol

> <ChEMBL_Data_Neisseria_g: NUM_RO5_VIOLATIONS>
0

> <ChEMBL_Data_Neisseria_g: Qualifier_for_MIC_Ng>
=

> <ChEMBL_Data_Neisseria_g: ASSAY_CHEMBLID>
CHEMBL997429

> <ChEMBL_Data_Neisseria_g: DESCRIPTION_of_Assay_Ng>
Antimicrobial activity against Neisseria gonorrhoeae ATCC 49226 after 24 hrs by broth microdilution assay

> <ChEMBL_Data_Neisseria_g: PUBMED_ID>
16252907

> <ChEMBL_Data_Neisseria_g: YEAR>
2005

> <ChEMBL_Data_Neisseria_g: JOURNAL>
J. Nat. Prod.

> <ChEMBL_Data_Neisseria_g: VOLUME>
68

> <ChEMBL_Data_Neisseria_g: FIRST_PAGE>
1450

> <ChEMBL_Data_Neisseria_g: MIC_vs_Neisseria_microg_per_mL>
8

> <ALogP>
3.73

> <Active>
1

> <Molecular_Weight>
304.313

$$$$

Generated by Molecular Materials Informatics

 21 23  0  0  0  0  0  0  0  0999 V2000
    7.0129   -1.6010    0.0000 C   0  0  0  0  0  0  0  0  0  0  0  0
    5.5129   -1.6010    0.0000 C   0  0  0  0  0  0  0  0  0  0  0  0
    4.7629   -2.9000    0.0000 C   0  0  0  0  0  0  0  0  0  0  0  0
    4.7629   -0.3020    0.0000 C   0  0  0  0  0  0  0  0  0  0  0  0
    5.5129    0.9970    0.0000 C   0  0  0  0  0  0  0  0  0  0  0  0
    7.0129    0.9970    0.0000 O   0  0  0  0  0  0  0  0  0  0  0  0
    4.7629    2.2961    0.0000 C   0  0  0  0  0  0  0  0  0  0  0  0
    3.2629    2.2961    0.0000 C   0  0  0  0  0  0  0  0  0  0  0  0
    2.5129    0.9970    0.0000 C   0  0  0  0  0  0  0  0  0  0  0  0
    3.2629   -0.3020    0.0000 C   0  0  0  0  0  0  0  0  0  0  0  0
    2.5129   -1.6010    0.0000 C   0  0  0  0  0  0  0  0  0  0  0  0
    1.0129   -1.6010    0.0000 C   0  0  0  0  0  0  0  0  0  0  0  0
    0.2629   -0.3020    0.0000 C   0  0  0  0  0  0  0  0  0  0  0  0
   -1.2371   -0.3020    0.0000 C   0  0  0  0  0  0  0  0  0  0  0  0
   -0.9767   -1.7791    0.0000 C   0  0  0  0  0  0  0  0  0  0  0  0
   -2.6467   -0.8149    0.0000 C   0  0  0  0  0  0  0  0  0  0  0  0
   -1.9871    0.9970    0.0000 C   0  0  0  0  0  0  0  0  0  0  0  0
   -1.2371    2.2961    0.0000 C   0  0  0  0  0  0  0  0  0  0  0  0
    0.2629    2.2961    0.0000 C   0  0  0  0  0  0  0  0  0  0  0  0
    1.0129    0.9970    0.0000 C   0  0  0  0  0  0  0  0  0  0  0  0
    1.7629    2.2961    0.0000 C   0  0  0  0  0  0  0  0  0  0  0  0
  1  2  1  0  0  0  0
  2  3  1  0  0  0  0
  2  4  1  0  0  0  0
  4  5  2  0  0  0  0
  5  6  1  0  0  0  0
  5  7  1  0  0  0  0
  7  8  2  0  0  0  0
  8  9  1  0  0  0  0
  9 10  2  0  0  0  0
  4 10  1  0  0  0  0
 10 11  1  0  0  0  0
 11 12  2  0  0  0  0
 13 12  1  1  0  0  0
 13 14  1  0  0  0  0
 14 15  1  0  0  0  0
 14 16  1  0  0  0  0
 14 17  1  0  0  0  0
 17 18  1  0  0  0  0
 18 19  1  0  0  0  0
 19 20  1  0  0  0  0
  9 20  1  0  0  0  0
 13 20  1  0  0  0  0
 20 21  1  1  0  0  0
M  END
> <Molecule Name>
CHEMBL450305

> <IUPAC>
(4bS,8aS)-4b,8,8-trimethyl-1-(propan-2-yl)-4b,5,6,7,8,8a-hexahydrophenanthren-2-ol

> <ChEMBL_Data_Neisseria_g: NUM_RO5_VIOLATIONS>
1

> <ChEMBL_Data_Neisseria_g: Qualifier_for_MIC_Ng>
=

> <ChEMBL_Data_Neisseria_g: ASSAY_CHEMBLID>
CHEMBL1008669

> <ChEMBL_Data_Neisseria_g: DESCRIPTION_of_Assay_Ng>
Antimicrobial activity against Neisseria gonorrhoeae ATCC 49226 at 64 ug/mL after 24 hrs by broth microdilution assay

> <ChEMBL_Data_Neisseria_g: PUBMED_ID>
15387645

> <ChEMBL_Data_Neisseria_g: YEAR>
2004

> <ChEMBL_Data_Neisseria_g: JOURNAL>
J. Nat. Prod.

> <ChEMBL_Data_Neisseria_g: VOLUME>
67

> <ChEMBL_Data_Neisseria_g: FIRST_PAGE>
1476

> <ChEMBL_Data_Neisseria_g: MIC_vs_Neisseria_microg_per_mL>
8

> <ALogP>
5.559

> <Active>
1

> <Molecular_Weight>
284.436

$$$$

Generated by Molecular Materials Informatics

 20 22  0  0  0  0  0  0  0  0999 V2000
   -3.0082   -4.3479    0.0000 C   0  0  0  0  0  0  0  0  0  0  0  0
   -2.2180   -3.0728    0.0000 C   0  0  0  0  0  0  0  0  0  0  0  0
   -0.7187   -3.1197    0.0000 O   0  0  0  0  0  0  0  0  0  0  0  0
    0.0714   -1.8446    0.0000 C   0  0  0  0  0  0  0  0  0  0  0  0
   -0.6376   -0.5228    0.0000 C   0  0  0  0  0  0  0  0  0  0  0  0
   -2.1369   -0.4761    0.0000 C   0  0  0  0  0  0  0  0  0  0  0  0
    0.1527    0.7521    0.0000 C   0  0  0  0  0  0  0  0  0  0  0  0
   -0.5564    2.0739    0.0000 O   0  0  0  0  0  0  0  0  0  0  0  0
    1.6520    0.7052    0.0000 C   0  0  0  0  0  0  0  0  0  0  0  0
    2.4422    1.9803    0.0000 C   0  0  0  0  0  0  0  0  0  0  0  0
    3.9414    1.9334    0.0000 C   0  0  0  0  0  0  0  0  0  0  0  0
    4.6503    0.6115    0.0000 N   0  0  0  0  0  0  0  0  0  0  0  0
    6.1072    0.2541    0.0000 C   0  0  0  0  0  0  0  0  0  0  0  0
    7.2527    1.2224    0.0000 C   0  0  0  0  0  0  0  0  0  0  0  0
    6.2172   -1.2419    0.0000 N   0  0  0  0  0  0  0  0  0  0  0  0
    4.8287   -1.8090    0.0000 C   0  0  0  0  0  0  0  0  0  0  0  0
    3.8602   -0.6634    0.0000 C   0  0  0  0  0  0  0  0  0  0  0  0
    2.3609   -0.6166    0.0000 C   0  0  0  0  0  0  0  0  0  0  0  0
    1.5707   -1.8915    0.0000 C   0  0  0  0  0  0  0  0  0  0  0  0
    2.2798   -3.2134    0.0000 O   0  0  0  0  0  0  0  0  0  0  0  0
  1  2  1  0  0  0  0
  2  3  1  0  0  0  0
  3  4  1  0  0  0  0
  4  5  2  0  0  0  0
  5  6  1  0  0  0  0
  5  7  1  0  0  0  0
  7  8  2  0  0  0  0
  7  9  1  0  0  0  0
  9 10  1  0  0  0  0
 10 11  2  0  0  0  0
 11 12  1  0  0  0  0
 12 13  1  0  0  0  0
 13 14  1  0  0  0  0
 13 15  2  0  0  0  0
 15 16  1  0  0  0  0
 16 17  2  0  0  0  0
 12 17  1  0  0  0  0
 17 18  1  0  0  0  0
  9 18  2  0  0  0  0
 18 19  1  0  0  0  0
  4 19  1  0  0  0  0
 19 20  2  0  0  0  0
M  END
> <Molecule Name>
CHEMBL447648

> <IUPAC>
9-ethoxy-3,8-dimethyl-7H,10H-imidazo[4,3-a]isoquinoline-7,10-dione

> <ChEMBL_Data_Neisseria_g: Molecule_Preferred_NAME>
CRIBROSTATIN 6

> <ChEMBL_Data_Neisseria_g: NUM_RO5_VIOLATIONS>
0

> <ChEMBL_Data_Neisseria_g: Qualifier_for_MIC_Ng>
=

> <ChEMBL_Data_Neisseria_g: ASSAY_CHEMBLID>
CHEMBL991246

> <ChEMBL_Data_Neisseria_g: DESCRIPTION_of_Assay_Ng>
Antimicrobial activity against Neisseria gonorrhoeae ATCC 49226 by broth microdilution susceptibility assay

> <ChEMBL_Data_Neisseria_g: PUBMED_ID>
12713412

> <ChEMBL_Data_Neisseria_g: YEAR>
2003

> <ChEMBL_Data_Neisseria_g: JOURNAL>
J. Nat. Prod.

> <ChEMBL_Data_Neisseria_g: VOLUME>
66

> <ChEMBL_Data_Neisseria_g: FIRST_PAGE>
544

> <ChEMBL_Data_Neisseria_g: MIC_vs_Neisseria_microg_per_mL>
0.0625

> <ALogP>
1.264

> <Active>
1

> <Molecular_Weight>
270.283

$$$$

Generated by Molecular Materials Informatics

 21 23  0  0  0  0  0  0  0  0999 V2000
    0.5068   -5.6438    0.0000 C   0  0  0  0  0  0  0  0  0  0  0  0
    1.8059   -4.8938    0.0000 O   0  0  0  0  0  0  0  0  0  0  0  0
    1.8059   -3.3938    0.0000 C   0  0  0  0  0  0  0  0  0  0  0  0
    0.5068   -2.6437    0.0000 C   0  0  0  0  0  0  0  0  0  0  0  0
    0.5068   -1.1438    0.0000 C   0  0  0  0  0  0  0  0  0  0  0  0
   -0.7921   -0.3938    0.0000 C   0  0  0  0  0  0  0  0  0  0  0  0
   -0.7921    1.1062    0.0000 C   0  0  0  0  0  0  0  0  0  0  0  0
    0.5068    1.8563    0.0000 N   0  0  0  0  0  0  0  0  0  0  0  0
    1.8059    1.1062    0.0000 C   0  0  0  0  0  0  0  0  0  0  0  0
    3.1049    1.8563    0.0000 C   0  0  0  0  0  0  0  0  0  0  0  0
    4.4040    1.1062    0.0000 C   0  0  0  0  0  0  0  0  0  0  0  0
    4.4040   -0.3938    0.0000 N   0  0  0  0  0  0  0  0  0  0  0  0
    5.7029   -1.1438    0.0000 C   0  0  0  0  0  0  0  0  0  0  0  0
    3.1049   -1.1438    0.0000 C   0  0  0  0  0  0  0  0  0  0  0  0
    3.1049   -2.6437    0.0000 C   0  0  0  0  0  0  0  0  0  0  0  0
    4.4040   -3.3938    0.0000 O   0  0  0  0  0  0  0  0  0  0  0  0
    4.4040   -4.8938    0.0000 P   0  0  0  0  0  0  0  0  0  0  0  0
    2.9040   -4.8938    0.0000 O   0  0  0  0  0  0  0  0  0  0  0  0
    4.4040   -6.3938    0.0000 O   0  5  0  0  0  0  0  0  0  0  0  0
    5.9040   -4.8938    0.0000 O   0  5  0  0  0  0  0  0  0  0  0  0
    1.8059   -0.3938    0.0000 C   0  0  0  0  0  0  0  0  0  0  0  0
  1  2  1  0  0  0  0
  2  3  1  0  0  0  0
  3  4  1  0  0  0  0
  4  5  2  0  0  0  0
  5  6  1  0  0  0  0
  6  7  2  0  0  0  0
  7  8  1  0  0  0  0
  8  9  2  0  0  0  0
  9 10  1  0  0  0  0
 10 11  2  0  0  0  0
 11 12  1  0  0  0  0
 12 13  1  0  0  0  0
 12 14  1  0  0  0  0
 14 15  1  0  0  0  0
  3 15  2  0  0  0  0
 15 16  1  0  0  0  0
 16 17  1  0  0  0  0
 17 18  2  0  0  0  0
 17 19  1  0  0  0  0
 17 20  1  0  0  0  0
 14 21  2  0  0  0  0
  5 21  1  0  0  0  0
  9 21  1  0  0  0  0
M  CHG  2  19  -1  20  -1
M  END
> <Molecule Name>
CHEMBL444408

> <IUPAC>
disodium ({11-methoxy-2-methyl-2,6-diazatricyclo[7.3.1.0,]trideca-1(13),3,5,7,9,11-hexaen-12-yl}oxy)phosphonic acid

> <ChEMBL_Data_Neisseria_g: Molecule_Preferred_NAME>
HYSTATIN 1

> <ChEMBL_Data_Neisseria_g: NUM_RO5_VIOLATIONS>
0

> <ChEMBL_Data_Neisseria_g: Qualifier_for_MIC_Ng>
<

> <ChEMBL_Data_Neisseria_g: ASSAY_CHEMBLID>
CHEMBL1014115

> <ChEMBL_Data_Neisseria_g: DESCRIPTION_of_Assay_Ng>
Antimicrobial activity against Neisseria gonorrhoeae by broth microdilution susceptibility assay

> <ChEMBL_Data_Neisseria_g: PUBMED_ID>
15043446

> <ChEMBL_Data_Neisseria_g: YEAR>
2004

> <ChEMBL_Data_Neisseria_g: JOURNAL>
J. Nat. Prod.

> <ChEMBL_Data_Neisseria_g: VOLUME>
67

> <ChEMBL_Data_Neisseria_g: FIRST_PAGE>
506

> <ChEMBL_Data_Neisseria_g: MIC_vs_Neisseria_microg_per_mL>
0.5

> <ALogP>
-0.823

> <Active>
1

> <Molecular_Weight>
306.211

$$$$

Generated by Molecular Materials Informatics

 22 23  0  0  0  0  0  0  0  0999 V2000
    0.8443    2.5312    0.0000 C   0  0  0  0  0  0  0  0  0  0  0  0
    2.1434    1.7812    0.0000 C   0  0  0  0  0  0  0  0  0  0  0  0
    3.4425    2.5312    0.0000 C   0  0  0  0  0  0  0  0  0  0  0  0
    2.1434    0.2812    0.0000 C   0  0  0  0  0  0  0  0  0  0  0  0
    3.4425   -0.4688    0.0000 C   0  0  0  0  0  0  0  0  0  0  0  0
    3.4425   -1.9687    0.0000 C   0  0  0  0  0  0  0  0  0  0  0  0
    4.7416   -2.7188    0.0000 C   0  0  0  0  0  0  0  0  0  0  0  0
    4.7416   -4.2188    0.0000 C   0  0  0  0  0  0  0  0  0  0  0  0
    6.0405   -4.9688    0.0000 C   0  0  0  0  0  0  0  0  0  0  0  0
    6.0405   -6.4687    0.0000 N   0  0  0  0  0  0  0  0  0  0  0  0
    4.7416   -7.2188    0.0000 C   0  0  0  0  0  0  0  0  0  0  0  0
    4.7416   -8.7188    0.0000 N   0  0  0  0  0  0  0  0  0  0  0  0
    3.4425   -6.4687    0.0000 N   0  0  0  0  0  0  0  0  0  0  0  0
    3.4425   -4.9688    0.0000 C   0  0  0  0  0  0  0  0  0  0  0  0
    2.1434   -4.2188    0.0000 N   0  0  0  0  0  0  0  0  0  0  0  0
    2.1434   -2.7188    0.0000 C   0  0  0  0  0  0  0  0  0  0  0  0
    0.8443   -1.9687    0.0000 C   0  0  0  0  0  0  0  0  0  0  0  0
   -0.4546   -2.7188    0.0000 C   0  0  0  0  0  0  0  0  0  0  0  0
   -1.7537   -1.9687    0.0000 C   0  0  0  0  0  0  0  0  0  0  0  0
   -0.4546   -4.2188    0.0000 C   0  0  0  0  0  0  0  0  0  0  0  0
    0.8443   -0.4688    0.0000 C   0  0  0  0  0  0  0  0  0  0  0  0
   -0.4546    0.2812    0.0000 O   0  0  0  0  0  0  0  0  0  0  0  0
  1  2  1  0  0  0  0
  2  3  1  0  0  0  0
  2  4  1  0  0  0  0
  4  5  2  0  0  0  0
  5  6  1  0  0  0  0
  6  7  1  0  0  0  0
  7  8  1  0  0  0  0
  8  9  2  0  0  0  0
  9 10  1  0  0  0  0
 10 11  2  0  0  0  0
 11 12  1  0  0  0  0
 11 13  1  0  0  0  0
 13 14  2  0  0  0  0
  8 14  1  0  0  0  0
 14 15  1  0  0  0  0
  6 16  2  0  0  0  0
 16 17  1  0  0  0  0
 17 18  1  0  0  0  0
 18 19  1  0  0  0  0
 18 20  1  0  0  0  0
 17 21  2  0  0  0  0
  4 21  1  0  0  0  0
 21 22  1  0  0  0  0
M  END
> <Molecule Name>
CHEMBL440946

> <IUPAC>
4-[(2,4-diaminopyrimidin-5-yl)methyl]-2,6-bis(propan-2-yl)phenol

> <ChEMBL_Data_Neisseria_g: NUM_RO5_VIOLATIONS>
0

> <ChEMBL_Data_Neisseria_g: Qualifier_for_MIC_Ng>
=

> <ChEMBL_Data_Neisseria_g: ASSAY_CHEMBLID>
CHEMBL753614

> <ChEMBL_Data_Neisseria_g: DESCRIPTION_of_Assay_Ng>
Inhibition of growth of Neisseria gonorrhoeae

> <ChEMBL_Data_Neisseria_g: PUBMED_ID>
3121854

> <ChEMBL_Data_Neisseria_g: YEAR>
1988

> <ChEMBL_Data_Neisseria_g: JOURNAL>
J. Med. Chem.

> <ChEMBL_Data_Neisseria_g: VOLUME>
31

> <ChEMBL_Data_Neisseria_g: FIRST_PAGE>
122

> <ChEMBL_Data_Neisseria_g: MIC_vs_Neisseria_microg_per_mL>
2.8

> <ALogP>
3.739

> <Active>
1

> <Molecular_Weight>
300.399

$$$$

Generated by Molecular Materials Informatics

 50 53  0  0  0  0  0  0  0  0999 V2000
   -0.2851   -4.2871    0.0000 C   0  0  0  0  0  0  0  0  0  0  0  0
    1.1874   -4.0107    0.0000 O   0  0  0  0  0  0  0  0  0  0  0  0
    1.6843   -2.5971    0.0000 C   0  0  0  0  0  0  0  0  0  0  0  0
    0.3360   -1.9261    0.0000 C   0  0  0  0  0  0  0  0  0  0  0  0
   -0.8252   -0.9408    0.0000 C   0  0  0  0  0  0  0  0  0  0  0  0
   -1.8668    0.2115    0.0000 O   0  0  0  0  0  0  0  0  0  0  0  0
   -1.9686    1.7752    0.0000 C   0  0  0  0  0  0  0  0  0  0  0  0
   -2.8724    2.9702    0.0000 C   0  0  0  0  0  0  0  0  0  0  0  0
   -0.5570    1.2740    0.0000 O   0  0  0  0  0  0  0  0  0  0  0  0
    0.4501    2.3675    0.0000 C   0  0  0  0  0  0  0  0  0  0  0  0
    1.9735    2.2652    0.0000 C   0  0  0  0  0  0  0  0  0  0  0  0
    2.6709    0.9393    0.0000 C   0  0  0  0  0  0  0  0  0  0  0  0
    2.7379    3.5536    0.0000 C   0  0  0  0  0  0  0  0  0  0  0  0
    4.2357    3.5155    0.0000 O   0  0  0  0  0  0  0  0  0  0  0  0
    2.0301    4.8979    0.0000 C   0  0  0  0  0  0  0  0  0  0  0  0
    2.8576    6.1594    0.0000 C   0  0  0  0  0  0  0  0  0  0  0  0
    4.3494    6.0197    0.0000 O   0  0  0  0  0  0  0  0  0  0  0  0
    2.2842    7.5393    0.0000 C   0  0  0  0  0  0  0  0  0  0  0  0
    3.7575    8.0816    0.0000 N   0  0  0  0  0  0  0  0  0  0  0  0
    5.2976    8.1601    0.0000 C   0  0  0  0  0  0  0  0  0  0  0  0
    5.5291    9.6404    0.0000 O   0  0  0  0  0  0  0  0  0  0  0  0
    6.7832    7.5985    0.0000 C   0  0  0  0  0  0  0  0  0  0  0  0
    7.9978    6.5904    0.0000 C   0  0  0  0  0  0  0  0  0  0  0  0
    8.8855    5.2502    0.0000 C   0  0  0  0  0  0  0  0  0  0  0  0
    9.3374    3.8133    0.0000 C   0  0  0  0  0  0  0  0  0  0  0  0
    9.4002    2.3061    0.0000 C   0  0  0  0  0  0  0  0  0  0  0  0
   10.8926    2.1719    0.0000 C   0  0  0  0  0  0  0  0  0  0  0  0
    9.0702    0.8383    0.0000 C   0  0  0  0  0  0  0  0  0  0  0  0
   10.4769    0.3216    0.0000 O   0  0  0  0  0  0  0  0  0  0  0  0
    8.3718   -0.4940    0.0000 C   0  0  0  0  0  0  0  0  0  0  0  0
    9.5966   -1.3571    0.0000 C   0  0  0  0  0  0  0  0  0  0  0  0
    7.3520   -1.6003    0.0000 C   0  0  0  0  0  0  0  0  0  0  0  0
    8.3118   -2.7508    0.0000 O   0  0  0  0  0  0  0  0  0  0  0  0
    6.0812   -2.4046    0.0000 C   0  0  0  0  0  0  0  0  0  0  0  0
    6.7105   -3.7644    0.0000 C   0  0  0  0  0  0  0  0  0  0  0  0
    4.6465   -2.8529    0.0000 C   0  0  0  0  0  0  0  0  0  0  0  0
    4.9035   -4.3290    0.0000 O   0  0  0  0  0  0  0  0  0  0  0  0
    6.3103   -4.8444    0.0000 C   0  0  0  0  0  0  0  0  0  0  0  0
    7.4601   -3.8839    0.0000 O   0  0  0  0  0  0  0  0  0  0  0  0
    6.5672   -6.3206    0.0000 C   0  0  0  0  0  0  0  0  0  0  0  0
    3.1478   -2.9157    0.0000 C   0  0  0  0  0  0  0  0  0  0  0  0
    3.0187   -4.4086    0.0000 C   0  0  0  0  0  0  0  0  0  0  0  0
    7.5369    8.8934    0.0000 C   0  0  0  0  0  0  0  0  0  0  0  0
    0.7605    7.6025    0.0000 C   0  0  0  0  0  0  0  0  0  0  0  0
   -0.1027    6.4124    0.0000 C   0  0  0  0  0  0  0  0  0  0  0  0
   -1.5914    6.5818    0.0000 O   0  0  0  0  0  0  0  0  0  0  0  0
    0.4942    5.0049    0.0000 C   0  0  0  0  0  0  0  0  0  0  0  0
   -0.3461    3.6653    0.0000 C   0  0  0  0  0  0  0  0  0  0  0  0
   -1.8435    3.3071    0.0000 C   0  0  0  0  0  0  0  0  0  0  0  0
   -2.9810    4.2826    0.0000 O   0  0  0  0  0  0  0  0  0  0  0  0
  1  2  1  0  0  0  0
  3  2  1  1  0  0  0
  3  4  1  0  0  0  0
  4  5  2  0  0  0  0
  5  6  1  0  0  0  0
  6  7  1  0  0  0  0
  7  8  1  1  0  0  0
  7  9  1  0  0  0  0
  9 10  1  0  0  0  0
 10 11  2  0  0  0  0
 11 12  1  0  0  0  0
 11 13  1  0  0  0  0
 13 14  1  0  0  0  0
 13 15  2  0  0  0  0
 15 16  1  0  0  0  0
 16 17  1  0  0  0  0
 16 18  2  0  0  0  0
 18 19  1  0  0  0  0
 19 20  1  0  0  0  0
 20 21  2  0  0  0  0
 20 22  1  0  0  0  0
 22 23  2  0  0  0  0
 23 24  1  0  0  0  0
 24 25  2  0  0  0  0
 25 26  1  0  0  0  0
 26 27  1  6  0  0  0
 26 28  1  0  0  0  0
 28 29  1  6  0  0  0
 28 30  1  0  0  0  0
 30 31  1  1  0  0  0
 30 32  1  0  0  0  0
 32 33  1  1  0  0  0
 32 34  1  0  0  0  0
 34 35  1  1  0  0  0
 34 36  1  0  0  0  0
 36 37  1  6  0  0  0
 37 38  1  0  0  0  0
 38 39  2  0  0  0  0
 38 40  1  0  0  0  0
 36 41  1  0  0  0  0
  3 41  1  0  0  0  0
 41 42  1  6  0  0  0
 22 43  1  0  0  0  0
 18 44  1  0  0  0  0
 44 45  2  0  0  0  0
 45 46  1  0  0  0  0
 45 47  1  0  0  0  0
 15 47  1  0  0  0  0
 47 48  2  0  0  0  0
 10 48  1  0  0  0  0
 48 49  1  0  0  0  0
  7 49  1  0  0  0  0
 49 50  2  0  0  0  0
M  END
> <Molecule Name>
CHEMBL437765

> <CDD Number>
CDD-1759

> <IUPAC>
(7S,9E,11S,12R,13S,14R,15R,16R,17S,18S,19E,21Z)-2,15,17,27,29-pentahydroxy-11-methoxy-3,7,12,14,16,18,22-heptamethyl-6,23-dioxo-8,30-dioxa-24-azatetracyclo[23.3.1.1,.0,]triaconta-1(29),2
,4,9,19,21,25,27-octaen-13-yl acetate

> <Collections>
Set2_NotListedAsBetaLactamResistant (mostly)
TrainingSet_Kleb_p_ALPerryman_JSF

> <ChEMBL_Data_Neisseria_g: Molecule_Preferred_NAME>
RIFAMYCIN

> <ChEMBL_Data_Neisseria_g: NUM_RO5_VIOLATIONS>
3

> <ChEMBL_Data_Neisseria_g: Qualifier_for_MIC_Ng>
=

> <ChEMBL_Data_Neisseria_g: ASSAY_CHEMBLID>
CHEMBL750222

> <ChEMBL_Data_Neisseria_g: DESCRIPTION_of_Assay_Ng>
In vitro antibacterial activity of compound against Neisseria gonorrhoeae ISM 68/126

> <ChEMBL_Data_Neisseria_g: PUBMED_ID>
2329569

> <ChEMBL_Data_Neisseria_g: YEAR>
1990

> <ChEMBL_Data_Neisseria_g: JOURNAL>
J. Med. Chem.

> <ChEMBL_Data_Neisseria_g: VOLUME>
33

> <ChEMBL_Data_Neisseria_g: FIRST_PAGE>
1470

> <ChEMBL_Data_Neisseria_g: MIC_vs_Neisseria_microg_per_mL>
0.032

> <ALogP>
3.571

> <Active>
1

> <Molecular_Weight>
697.769

$$$$

Generated by Molecular Materials Informatics

 18 19  0  0  0  0  0  0  0  0999 V2000
    8.8208    3.4354    0.0000 C   0  0  0  0  0  0  0  0  0  0  0  0
    7.5217    2.6854    0.0000 C   0  0  0  0  0  0  0  0  0  0  0  0
    7.5217    1.1854    0.0000 C   0  0  0  0  0  0  0  0  0  0  0  0
    6.2226    3.4354    0.0000 C   0  0  0  0  0  0  0  0  0  0  0  0
    4.9237    2.6854    0.0000 S   0  0  0  0  0  0  0  0  0  0  0  0
    4.1737    3.9845    0.0000 O   0  0  0  0  0  0  0  0  0  0  0  0
    5.6737    1.3865    0.0000 O   0  0  0  0  0  0  0  0  0  0  0  0
    3.6246    1.9354    0.0000 N   0  0  0  0  0  0  0  0  0  0  0  0
    3.6246    0.4354    0.0000 N   0  0  0  0  0  0  0  0  0  0  0  0
    2.3255   -0.3146    0.0000 C   0  0  0  0  0  0  0  0  0  0  0  0
    1.0264    0.4354    0.0000 C   0  0  0  0  0  0  0  0  0  0  0  0
   -0.4001   -0.0281    0.0000 S   0  0  0  0  0  0  0  0  0  0  0  0
   -1.2818    1.1854    0.0000 C   0  0  0  0  0  0  0  0  0  0  0  0
   -2.7818    1.1854    0.0000 Br  0  0  0  0  0  0  0  0  0  0  0  0
   -0.4001    2.3990    0.0000 C   0  0  0  0  0  0  0  0  0  0  0  0
    1.0264    1.9354    0.0000 C   0  0  0  0  0  0  0  0  0  0  0  0
    2.3255    2.6854    0.0000 B   0  0  0  0  0  0  0  0  0  0  0  0
    2.3255    4.1854    0.0000 O   0  0  0  0  0  0  0  0  0  0  0  0
  1  2  1  0  0  0  0
  2  3  1  0  0  0  0
  2  4  1  0  0  0  0
  4  5  1  0  0  0  0
  5  6  2  0  0  0  0
  5  7  2  0  0  0  0
  5  8  1  0  0  0  0
  8  9  1  0  0  0  0
  9 10  2  0  0  0  0
 10 11  1  0  0  0  0
 11 12  1  0  0  0  0
 12 13  1  0  0  0  0
 13 14  1  0  0  0  0
 13 15  2  0  0  0  0
 15 16  1  0  0  0  0
 11 16  2  0  0  0  0
 16 17  1  0  0  0  0
  8 17  1  0  0  0  0
 17 18  1  0  0  0  0
M  END
> <Molecule Name>
CHEMBL434168

> <IUPAC>
6-bromo-2-(2-methylpropanesulfonyl)-1H,2H-thieno[3,2-d][1,2,3]diazaborinin-1-ol

> <Collections>
TrainingSet_Kleb_p_ALPerryman_JSF

> <ChEMBL_Data_Neisseria_g: Qualifier_for_MIC_Ng>
=

> <ChEMBL_Data_Neisseria_g: ASSAY_CHEMBLID>
CHEMBL753615

> <ChEMBL_Data_Neisseria_g: DESCRIPTION_of_Assay_Ng>
Minimum inhibitory concentration of compound against Neisseria gonorrhoeae AS 7720

> <ChEMBL_Data_Neisseria_g: PUBMED_ID>
6379179

> <ChEMBL_Data_Neisseria_g: YEAR>
1984

> <ChEMBL_Data_Neisseria_g: JOURNAL>
J. Med. Chem.

> <ChEMBL_Data_Neisseria_g: VOLUME>
27

> <ChEMBL_Data_Neisseria_g: FIRST_PAGE>
947

> <ChEMBL_Data_Neisseria_g: MIC_vs_Neisseria_microg_per_mL>
2

> <ALogP>
3.04

> <Active>
1

> <Molecular_Weight>
351.048

$$$$

Generated by Molecular Materials Informatics

 63 68  0  0  0  0  0  0  0  0999 V2000
   -0.2083   -6.1733    0.0000 C   0  0  0  0  0  0  0  0  0  0  0  0
    1.2658   -5.8966    0.0000 O   0  0  0  0  0  0  0  0  0  0  0  0
    1.7632   -4.4815    0.0000 C   0  0  0  0  0  0  0  0  0  0  0  0
    0.4134   -3.8098    0.0000 C   0  0  0  0  0  0  0  0  0  0  0  0
   -0.7490   -2.8234    0.0000 C   0  0  0  0  0  0  0  0  0  0  0  0
   -1.7917   -1.6699    0.0000 O   0  0  0  0  0  0  0  0  0  0  0  0
   -1.8937   -0.1045    0.0000 C   0  0  0  0  0  0  0  0  0  0  0  0
   -2.7984    1.0918    0.0000 C   0  0  0  0  0  0  0  0  0  0  0  0
   -0.4805   -0.6063    0.0000 O   0  0  0  0  0  0  0  0  0  0  0  0
    0.5276    0.4884    0.0000 C   0  0  0  0  0  0  0  0  0  0  0  0
    2.0526    0.3860    0.0000 C   0  0  0  0  0  0  0  0  0  0  0  0
    2.7508   -0.9414    0.0000 C   0  0  0  0  0  0  0  0  0  0  0  0
    2.8179    1.6758    0.0000 C   0  0  0  0  0  0  0  0  0  0  0  0
    4.3172    1.6376    0.0000 O   0  0  0  0  0  0  0  0  0  0  0  0
    2.1094    3.0215    0.0000 C   0  0  0  0  0  0  0  0  0  0  0  0
    2.9377    4.2844    0.0000 C   0  0  0  0  0  0  0  0  0  0  0  0
    4.4311    4.1446    0.0000 O   0  0  0  0  0  0  0  0  0  0  0  0
    2.3637    5.6658    0.0000 C   0  0  0  0  0  0  0  0  0  0  0  0
    3.8385    6.2086    0.0000 N   0  0  0  0  0  0  0  0  0  0  0  0
    5.3803    6.2872    0.0000 C   0  0  0  0  0  0  0  0  0  0  0  0
    5.6121    7.7691    0.0000 O   0  0  0  0  0  0  0  0  0  0  0  0
    6.8675    5.7250    0.0000 C   0  0  0  0  0  0  0  0  0  0  0  0
    8.0834    4.7158    0.0000 C   0  0  0  0  0  0  0  0  0  0  0  0
    8.9721    3.3742    0.0000 C   0  0  0  0  0  0  0  0  0  0  0  0
    9.4244    1.9358    0.0000 C   0  0  0  0  0  0  0  0  0  0  0  0
    9.4873    0.4269    0.0000 C   0  0  0  0  0  0  0  0  0  0  0  0
   10.9813    0.2926    0.0000 C   0  0  0  0  0  0  0  0  0  0  0  0
    9.1570   -1.0424    0.0000 C   0  0  0  0  0  0  0  0  0  0  0  0
   10.5651   -1.5597    0.0000 O   0  0  0  0  0  0  0  0  0  0  0  0
    8.4578   -2.3762    0.0000 C   0  0  0  0  0  0  0  0  0  0  0  0
    9.6839   -3.2402    0.0000 C   0  0  0  0  0  0  0  0  0  0  0  0
    7.4369   -3.4836    0.0000 C   0  0  0  0  0  0  0  0  0  0  0  0
    8.3978   -4.6354    0.0000 O   0  0  0  0  0  0  0  0  0  0  0  0
    6.1648   -4.2888    0.0000 C   0  0  0  0  0  0  0  0  0  0  0  0
    6.7948   -5.6500    0.0000 C   0  0  0  0  0  0  0  0  0  0  0  0
    4.7285   -4.7375    0.0000 C   0  0  0  0  0  0  0  0  0  0  0  0
    4.9858   -6.2153    0.0000 O   0  0  0  0  0  0  0  0  0  0  0  0
    6.3940   -6.7312    0.0000 C   0  0  0  0  0  0  0  0  0  0  0  0
    7.5451   -5.7697    0.0000 O   0  0  0  0  0  0  0  0  0  0  0  0
    6.6513   -8.2090    0.0000 C   0  0  0  0  0  0  0  0  0  0  0  0
    3.2282   -4.8004    0.0000 C   0  0  0  0  0  0  0  0  0  0  0  0
    3.0989   -6.2949    0.0000 C   0  0  0  0  0  0  0  0  0  0  0  0
    7.6220    7.0213    0.0000 C   0  0  0  0  0  0  0  0  0  0  0  0
    0.8383    5.7290    0.0000 C   0  0  0  0  0  0  0  0  0  0  0  0
    0.1847    7.0791    0.0000 C   0  0  0  0  0  0  0  0  0  0  0  0
    1.0270    8.3202    0.0000 N   0  0  0  0  0  0  0  0  0  0  0  0
    0.3734    9.6701    0.0000 N   0  0  0  0  0  0  0  0  0  0  0  0
   -1.1225    9.7790    0.0000 C   0  0  0  0  0  0  0  0  0  0  0  0
   -1.7761   11.1291    0.0000 C   0  0  0  0  0  0  0  0  0  0  0  0
   -0.9338   12.3701    0.0000 N   0  0  0  0  0  0  0  0  0  0  0  0
    0.5622   12.2612    0.0000 C   0  0  0  0  0  0  0  0  0  0  0  0
    1.2158   10.9111    0.0000 C   0  0  0  0  0  0  0  0  0  0  0  0
   -1.5875   13.7202    0.0000 C   0  0  0  0  0  0  0  0  0  0  0  0
   -3.0638   13.9850    0.0000 C   0  0  0  0  0  0  0  0  0  0  0  0
   -3.2684   15.4709    0.0000 C   0  0  0  0  0  0  0  0  0  0  0  0
   -1.9183   16.1245    0.0000 C   0  0  0  0  0  0  0  0  0  0  0  0
   -0.8794   15.0425    0.0000 C   0  0  0  0  0  0  0  0  0  0  0  0
   -0.0258    4.5376    0.0000 C   0  0  0  0  0  0  0  0  0  0  0  0
   -1.5161    4.7073    0.0000 O   0  0  0  0  0  0  0  0  0  0  0  0
    0.5718    3.1286    0.0000 C   0  0  0  0  0  0  0  0  0  0  0  0
   -0.2694    1.7876    0.0000 C   0  0  0  0  0  0  0  0  0  0  0  0
   -1.7684    1.4291    0.0000 C   0  0  0  0  0  0  0  0  0  0  0  0
   -2.9071    2.4056    0.0000 O   0  0  0  0  0  0  0  0  0  0  0  0
  1  2  1  0  0  0  0
  2  3  1  0  0  0  0
  3  4  1  0  0  0  0
  4  5  2  0  0  0  0
  5  6  1  0  0  0  0
  6  7  1  0  0  0  0
  7  8  1  0  0  0  0
  7  9  1  0  0  0  0
  9 10  1  0  0  0  0
 10 11  2  0  0  0  0
 11 12  1  0  0  0  0
 11 13  1  0  0  0  0
 13 14  1  0  0  0  0
 13 15  2  0  0  0  0
 15 16  1  0  0  0  0
 16 17  1  0  0  0  0
 16 18  2  0  0  0  0
 18 19  1  0  0  0  0
 19 20  1  0  0  0  0
 20 21  2  0  0  0  0
 20 22  1  0  0  0  0
 22 23  2  0  0  0  0
 23 24  1  0  0  0  0
 24 25  2  0  0  0  0
 25 26  1  0  0  0  0
 26 27  1  0  0  0  0
 26 28  1  0  0  0  0
 28 29  1  0  0  0  0
 28 30  1  0  0  0  0
 30 31  1  0  0  0  0
 30 32  1  0  0  0  0
 32 33  1  0  0  0  0
 32 34  1  0  0  0  0
 34 35  1  0  0  0  0
 34 36  1  0  0  0  0
 36 37  1  0  0  0  0
 37 38  1  0  0  0  0
 38 39  2  0  0  0  0
 38 40  1  0  0  0  0
 36 41  1  0  0  0  0
  3 41  1  0  0  0  0
 41 42  1  0  0  0  0
 22 43  1  0  0  0  0
 18 44  1  0  0  0  0
 45 44  1  0  0  0  0
 45 46  2  0  0  0  0
 46 47  1  0  0  0  0
 47 48  1  0  0  0  0
 48 49  1  0  0  0  0
 49 50  1  0  0  0  0
 50 51  1  0  0  0  0
 51 52  1  0  0  0  0
 47 52  1  0  0  0  0
 50 53  1  0  0  0  0
 53 54  1  0  0  0  0
 54 55  1  0  0  0  0
 55 56  1  0  0  0  0
 56 57  1  0  0  0  0
 53 57  1  0  0  0  0
 44 58  2  0  0  0  0
 58 59  1  0  0  0  0
 58 60  1  0  0  0  0
 15 60  1  0  0  0  0
 60 61  2  0  0  0  0
 10 61  1  0  0  0  0
 61 62  1  0  0  0  0
  7 62  1  0  0  0  0
 62 63  2  0  0  0  0
M  END
> <Molecule Name>
CHEMBL430727

> <IUPAC>
(9E,19E,21Z)-26-{[(4-cyclopentylpiperazin-1-yl)imino]methyl}-2,15,17,27,29-pentahydroxy-11-methoxy-3,7,12,14,16,18,22-heptamethyl-6,23-dioxo-8,30-dioxa-24-azatetracyclo[23.3.1.1,.0,]tria
conta-1,3,5(28),9,19,21,25(29),26-octaen-13-yl acetate

> <Collections>
Set2_NotListedAsBetaLactamResistant (mostly)
TrainingSet_Kleb_p_ALPerryman_JSF

> <ChEMBL_Data_Neisseria_g: NUM_RO5_VIOLATIONS>
3

> <ChEMBL_Data_Neisseria_g: Qualifier_for_MIC_Ng>
=

> <ChEMBL_Data_Neisseria_g: ASSAY_CHEMBLID>
CHEMBL750222

> <ChEMBL_Data_Neisseria_g: DESCRIPTION_of_Assay_Ng>
In vitro antibacterial activity of compound against Neisseria gonorrhoeae ISM 68/126

> <ChEMBL_Data_Neisseria_g: PUBMED_ID>
2329569

> <ChEMBL_Data_Neisseria_g: YEAR>
1990

> <ChEMBL_Data_Neisseria_g: JOURNAL>
J. Med. Chem.

> <ChEMBL_Data_Neisseria_g: VOLUME>
33

> <ChEMBL_Data_Neisseria_g: FIRST_PAGE>
1470

> <ChEMBL_Data_Neisseria_g: MIC_vs_Neisseria_microg_per_mL>
0.5

> <ALogP>
4.664

> <Active>
1

> <Molecular_Weight>
877.031

$$$$

Generated by Molecular Materials Informatics

 40 45  0  0  0  0  0  0  0  0999 V2000
   -2.3912   -4.1390    0.0000 C   0  0  0  0  0  0  0  0  0  0  0  0
   -0.9644   -4.6021    0.0000 C   0  0  0  0  0  0  0  0  0  0  0  0
    0.1499   -3.5981    0.0000 N   0  0  0  0  0  0  0  0  0  0  0  0
    1.5767   -4.0612    0.0000 C   0  0  0  0  0  0  0  0  0  0  0  0
    1.8890   -5.5283    0.0000 C   0  0  0  0  0  0  0  0  0  0  0  0
    3.3158   -5.9914    0.0000 C   0  0  0  0  0  0  0  0  0  0  0  0
    3.6280   -7.4585    0.0000 O   0  0  0  0  0  0  0  0  0  0  0  0
    4.4301   -4.9874    0.0000 C   0  0  0  0  0  0  0  0  0  0  0  0
    5.8569   -5.4505    0.0000 C   0  0  0  0  0  0  0  0  0  0  0  0
    6.1691   -6.9176    0.0000 O   0  0  0  0  0  0  0  0  0  0  0  0
    6.9712   -4.4465    0.0000 C   0  0  0  0  0  0  0  0  0  0  0  0
    6.6591   -2.9794    0.0000 C   0  0  0  0  0  0  0  0  0  0  0  0
    7.9578   -2.2290    0.0000 O   0  0  0  0  0  0  0  0  0  0  0  0
    9.0729   -3.2323    0.0000 C   0  0  0  0  0  0  0  0  0  0  0  0
    9.5360   -1.8056    0.0000 C   0  0  0  0  0  0  0  0  0  0  0  0
   11.0031   -1.4932    0.0000 C   0  0  0  0  0  0  0  0  0  0  0  0
   11.4662   -0.0665    0.0000 O   0  0  0  0  0  0  0  0  0  0  0  0
   12.0071   -2.6078    0.0000 C   0  0  0  0  0  0  0  0  0  0  0  0
   13.4742   -2.2954    0.0000 C   0  0  0  0  0  0  0  0  0  0  0  0
   14.4782   -3.4098    0.0000 C   0  0  0  0  0  0  0  0  0  0  0  0
   15.9455   -3.0976    0.0000 C   0  0  0  0  0  0  0  0  0  0  0  0
   16.9495   -4.2120    0.0000 C   0  0  0  0  0  0  0  0  0  0  0  0
   16.4864   -5.6387    0.0000 O   0  0  0  0  0  0  0  0  0  0  0  0
   15.0191   -5.9511    0.0000 C   0  0  0  0  0  0  0  0  0  0  0  0
   14.5560   -7.3778    0.0000 O   0  0  0  0  0  0  0  0  0  0  0  0
   14.0151   -4.8365    0.0000 C   0  0  0  0  0  0  0  0  0  0  0  0
   12.5480   -5.1489    0.0000 C   0  0  0  0  0  0  0  0  0  0  0  0
   12.0849   -6.5756    0.0000 O   0  0  0  0  0  0  0  0  0  0  0  0
   11.5440   -4.0345    0.0000 C   0  0  0  0  0  0  0  0  0  0  0  0
   10.0769   -4.3467    0.0000 O   0  0  0  0  0  0  0  0  0  0  0  0
   18.4166   -3.8998    0.0000 C   0  0  0  0  0  0  0  0  0  0  0  0
   18.8796   -2.4730    0.0000 O   0  0  0  0  0  0  0  0  0  0  0  0
   19.4206   -5.0141    0.0000 O   0  0  0  0  0  0  0  0  0  0  0  0
   20.8877   -4.7018    0.0000 C   0  0  0  0  0  0  0  0  0  0  0  0
    8.4631   -4.6029    0.0000 C   0  0  0  0  0  0  0  0  0  0  0  0
    5.2323   -2.5163    0.0000 C   0  0  0  0  0  0  0  0  0  0  0  0
    4.9200   -1.0490    0.0000 O   0  0  0  0  0  0  0  0  0  0  0  0
    4.1178   -3.5203    0.0000 C   0  0  0  0  0  0  0  0  0  0  0  0
    2.6910   -3.0572    0.0000 C   0  0  0  0  0  0  0  0  0  0  0  0
    2.3789   -1.5899    0.0000 O   0  0  0  0  0  0  0  0  0  0  0  0
  1  2  1  0  0  0  0
  2  3  1  0  0  0  0
  3  4  1  0  0  0  0
  4  5  2  0  0  0  0
  5  6  1  0  0  0  0
  6  7  1  0  0  0  0
  6  8  2  0  0  0  0
  8  9  1  0  0  0  0
  9 10  2  0  0  0  0
  9 11  1  0  0  0  0
 11 12  2  0  0  0  0
 12 13  1  0  0  0  0
 13 14  1  0  0  0  0
 14 15  1  0  0  0  0
 15 16  1  0  0  0  0
 16 17  1  0  0  0  0
 16 18  1  0  0  0  0
 18 19  2  0  0  0  0
 19 20  1  0  0  0  0
 20 21  1  0  0  0  0
 21 22  2  0  0  0  0
 22 23  1  0  0  0  0
 23 24  1  0  0  0  0
 24 25  2  0  0  0  0
 24 26  1  0  0  0  0
 20 26  2  0  0  0  0
 26 27  1  0  0  0  0
 27 28  1  0  0  0  0
 27 29  2  0  0  0  0
 18 29  1  0  0  0  0
 29 30  1  0  0  0  0
 14 30  1  0  0  0  0
 22 31  1  0  0  0  0
 31 32  2  0  0  0  0
 31 33  1  0  0  0  0
 33 34  1  0  0  0  0
 14 35  1  0  0  0  0
 11 35  1  0  0  0  0
 12 36  1  0  0  0  0
 36 37  2  0  0  0  0
 36 38  1  0  0  0  0
  8 38  1  0  0  0  0
 38 39  2  0  0  0  0
  4 39  1  0  0  0  0
 39 40  1  0  0  0  0
M  END
> <Molecule Name>
CHEMBL427123

> <IUPAC>
methyl 7-(ethylamino)-4',5,8,10'-tetrahydroxy-4,9,9'-trioxo-4,4',9,9'-tetrahydro-3H,3'H-spiro[naphtho[2,3-b]furan-2,2'-pyrano[3,2-g]isochromene]-7'-carboxylate

> <Collections>
Set2_NotListedAsBetaLactamResistant (mostly)

> <ChEMBL_Data_Neisseria_g: NUM_RO5_VIOLATIONS>
2

> <ChEMBL_Data_Neisseria_g: Qualifier_for_MIC_Ng>
=

> <ChEMBL_Data_Neisseria_g: ASSAY_CHEMBLID>
CHEMBL753613

> <ChEMBL_Data_Neisseria_g: DESCRIPTION_of_Assay_Ng>
In vitro antimicrobial activity against Neisseria gonorrhoeae L997

> <ChEMBL_Data_Neisseria_g: PUBMED_ID>
9083486

> <ChEMBL_Data_Neisseria_g: YEAR>
1997

> <ChEMBL_Data_Neisseria_g: JOURNAL>
J. Med. Chem.

> <ChEMBL_Data_Neisseria_g: VOLUME>
40

> <ChEMBL_Data_Neisseria_g: FIRST_PAGE>
967

> <ChEMBL_Data_Neisseria_g: MIC_vs_Neisseria_microg_per_mL>
0.06

> <ALogP>
1.591

> <Active>
1

> <Molecular_Weight>
551.455

$$$$

Generated by Molecular Materials Informatics

 22 24  0  0  0  0  0  0  0  0999 V2000
   -5.7805   -4.6499    0.0000 C   0  0  0  0  0  0  0  0  0  0  0  0
   -4.4815   -3.8999    0.0000 C   0  0  0  0  0  0  0  0  0  0  0  0
   -4.4815   -2.4000    0.0000 C   0  0  0  0  0  0  0  0  0  0  0  0
   -3.1824   -1.6500    0.0000 C   0  0  0  0  0  0  0  0  0  0  0  0
   -1.8836   -2.4000    0.0000 C   0  0  0  0  0  0  0  0  0  0  0  0
   -1.8836   -3.8999    0.0000 C   0  0  0  0  0  0  0  0  0  0  0  0
   -3.1824   -4.6499    0.0000 C   0  0  0  0  0  0  0  0  0  0  0  0
   -0.5845   -1.6500    0.0000 S   0  0  0  0  0  0  0  0  0  0  0  0
    0.1655   -2.9491    0.0000 O   0  0  0  0  0  0  0  0  0  0  0  0
   -1.3345   -0.3509    0.0000 O   0  0  0  0  0  0  0  0  0  0  0  0
    0.7145   -0.9000    0.0000 N   0  0  0  0  0  0  0  0  0  0  0  0
    0.7145    0.5999    0.0000 N   0  0  0  0  0  0  0  0  0  0  0  0
    2.0134    1.3499    0.0000 C   0  0  0  0  0  0  0  0  0  0  0  0
    3.3125    0.5999    0.0000 C   0  0  0  0  0  0  0  0  0  0  0  0
    4.6115    1.3499    0.0000 C   0  0  0  0  0  0  0  0  0  0  0  0
    5.9106    0.5999    0.0000 C   0  0  0  0  0  0  0  0  0  0  0  0
    7.2094    1.3499    0.0000 Cl  0  0  0  0  0  0  0  0  0  0  0  0
    5.9106   -0.9000    0.0000 C   0  0  0  0  0  0  0  0  0  0  0  0
    4.6115   -1.6500    0.0000 C   0  0  0  0  0  0  0  0  0  0  0  0
    3.3125   -0.9000    0.0000 C   0  0  0  0  0  0  0  0  0  0  0  0
    2.0134   -1.6500    0.0000 B   0  0  0  0  0  0  0  0  0  0  0  0
    2.0134   -3.1500    0.0000 O   0  0  0  0  0  0  0  0  0  0  0  0
  1  2  1  0  0  0  0
  2  3  2  0  0  0  0
  3  4  1  0  0  0  0
  4  5  2  0  0  0  0
  5  6  1  0  0  0  0
  6  7  2  0  0  0  0
  2  7  1  0  0  0  0
  5  8  1  0  0  0  0
  8  9  2  0  0  0  0
  8 10  2  0  0  0  0
  8 11  1  0  0  0  0
 11 12  1  0  0  0  0
 12 13  2  0  0  0  0
 13 14  1  0  0  0  0
 14 15  2  0  0  0  0
 15 16  1  0  0  0  0
 16 17  1  0  0  0  0
 16 18  2  0  0  0  0
 18 19  1  0  0  0  0
 19 20  2  0  0  0  0
 14 20  1  0  0  0  0
 20 21  1  0  0  0  0
 11 21  1  0  0  0  0
 21 22  1  0  0  0  0
M  END
> <Molecule Name>
CHEMBL426765

> <IUPAC>
6-chloro-2-(4-methylbenzenesulfonyl)-1,2-dihydro-2,3,1-benzodiazaborinin-1-ol

> <Collections>
TrainingSet_Kleb_p_ALPerryman_JSF

> <ChEMBL_Data_Neisseria_g: Qualifier_for_MIC_Ng>
=

> <ChEMBL_Data_Neisseria_g: ASSAY_CHEMBLID>
CHEMBL858169

> <ChEMBL_Data_Neisseria_g: DESCRIPTION_of_Assay_Ng>
Minimum inhibitory concentration of compound against Neisseria gonorrhoeae W2

> <ChEMBL_Data_Neisseria_g: PUBMED_ID>
6379179

> <ChEMBL_Data_Neisseria_g: YEAR>
1984

> <ChEMBL_Data_Neisseria_g: JOURNAL>
J. Med. Chem.

> <ChEMBL_Data_Neisseria_g: VOLUME>
27

> <ChEMBL_Data_Neisseria_g: FIRST_PAGE>
947

> <ChEMBL_Data_Neisseria_g: MIC_vs_Neisseria_microg_per_mL>
2

> <ALogP>
4.054

> <Active>
1

> <Molecular_Weight>
334.586

$$$$

Generated by Molecular Materials Informatics

 36 40  0  0  0  0  0  0  0  0999 V2000
   -6.8196   -6.5624    0.0000 C   0  0  0  0  0  0  0  0  0  0  0  0
   -5.5206   -5.8124    0.0000 C   0  0  0  0  0  0  0  0  0  0  0  0
   -5.5206   -4.3124    0.0000 C   0  0  0  0  0  0  0  0  0  0  0  0
   -4.2217   -3.5625    0.0000 C   0  0  0  0  0  0  0  0  0  0  0  0
   -2.9226   -4.3124    0.0000 C   0  0  0  0  0  0  0  0  0  0  0  0
   -2.9226   -5.8124    0.0000 C   0  0  0  0  0  0  0  0  0  0  0  0
   -4.2217   -6.5624    0.0000 C   0  0  0  0  0  0  0  0  0  0  0  0
   -1.6236   -3.5625    0.0000 S   0  0  0  0  0  0  0  0  0  0  0  0
   -0.8736   -4.8615    0.0000 O   0  0  0  0  0  0  0  0  0  0  0  0
   -2.3736   -2.2634    0.0000 O   0  0  0  0  0  0  0  0  0  0  0  0
   -0.3247   -2.8125    0.0000 N   0  0  0  0  0  0  0  0  0  0  0  0
   -0.3247   -1.3125    0.0000 N   0  0  0  0  0  0  0  0  0  0  0  0
    0.9743   -0.5625    0.0000 C   0  0  0  0  0  0  0  0  0  0  0  0
    2.2734   -1.3125    0.0000 C   0  0  0  0  0  0  0  0  0  0  0  0
    3.5724   -0.5625    0.0000 C   0  0  0  0  0  0  0  0  0  0  0  0
    4.8713   -1.3125    0.0000 C   0  0  0  0  0  0  0  0  0  0  0  0
    6.1704   -0.5625    0.0000 B   0  0  0  0  0  0  0  0  0  0  0  0
    6.1704    0.9374    0.0000 O   0  0  0  0  0  0  0  0  0  0  0  0
    7.4694   -1.3125    0.0000 N   0  0  0  0  0  0  0  0  0  0  0  0
    7.4694   -2.8125    0.0000 N   0  0  0  0  0  0  0  0  0  0  0  0
    6.1704   -3.5625    0.0000 C   0  0  0  0  0  0  0  0  0  0  0  0
    4.8713   -2.8125    0.0000 C   0  0  0  0  0  0  0  0  0  0  0  0
    3.5724   -3.5625    0.0000 C   0  0  0  0  0  0  0  0  0  0  0  0
    2.2734   -2.8125    0.0000 C   0  0  0  0  0  0  0  0  0  0  0  0
    0.9743   -3.5625    0.0000 B   0  0  0  0  0  0  0  0  0  0  0  0
    0.9743   -5.0624    0.0000 O   0  0  0  0  0  0  0  0  0  0  0  0
    8.7683   -0.5625    0.0000 S   0  0  0  0  0  0  0  0  0  0  0  0
    9.5183   -1.8616    0.0000 O   0  0  0  0  0  0  0  0  0  0  0  0
    8.0183    0.7365    0.0000 O   0  0  0  0  0  0  0  0  0  0  0  0
   10.0673    0.1874    0.0000 C   0  0  0  0  0  0  0  0  0  0  0  0
   10.0673    1.6874    0.0000 C   0  0  0  0  0  0  0  0  0  0  0  0
   11.3664    2.4374    0.0000 C   0  0  0  0  0  0  0  0  0  0  0  0
   12.6654    1.6874    0.0000 C   0  0  0  0  0  0  0  0  0  0  0  0
   13.9643    2.4374    0.0000 C   0  0  0  0  0  0  0  0  0  0  0  0
   12.6654    0.1874    0.0000 C   0  0  0  0  0  0  0  0  0  0  0  0
   11.3664   -0.5625    0.0000 C   0  0  0  0  0  0  0  0  0  0  0  0
  1  2  1  0  0  0  0
  2  3  2  0  0  0  0
  3  4  1  0  0  0  0
  4  5  2  0  0  0  0
  5  6  1  0  0  0  0
  6  7  2  0  0  0  0
  2  7  1  0  0  0  0
  5  8  1  0  0  0  0
  8  9  2  0  0  0  0
  8 10  2  0  0  0  0
  8 11  1  0  0  0  0
 11 12  1  0  0  0  0
 12 13  2  0  0  0  0
 13 14  1  0  0  0  0
 14 15  2  0  0  0  0
 15 16  1  0  0  0  0
 16 17  1  0  0  0  0
 17 18  1  0  0  0  0
 17 19  1  0  0  0  0
 19 20  1  0  0  0  0
 20 21  2  0  0  0  0
 21 22  1  0  0  0  0
 16 22  2  0  0  0  0
 22 23  1  0  0  0  0
 23 24  2  0  0  0  0
 14 24  1  0  0  0  0
 24 25  1  0  0  0  0
 11 25  1  0  0  0  0
 25 26  1  0  0  0  0
 19 27  1  0  0  0  0
 27 28  2  0  0  0  0
 27 29  2  0  0  0  0
 27 30  1  0  0  0  0
 30 31  2  0  0  0  0
 31 32  1  0  0  0  0
 32 33  2  0  0  0  0
 33 34  1  0  0  0  0
 33 35  1  0  0  0  0
 35 36  2  0  0  0  0
 30 36  1  0  0  0  0
M  END
> <Molecule Name>
CHEMBL423074

> <IUPAC>
5,12-bis(4-methylbenzenesulfonyl)-5,6,12,13-tetraaza-4,11-diboratricyclo[8.4.0.0,]tetradeca-1,3(8),6,9,13-pentaene-4,11-diol

> <Collections>
TrainingSet_Kleb_p_ALPerryman_JSF

> <ChEMBL_Data_Neisseria_g: Qualifier_for_MIC_Ng>
>

> <ChEMBL_Data_Neisseria_g: ASSAY_CHEMBLID>
CHEMBL753615

> <ChEMBL_Data_Neisseria_g: DESCRIPTION_of_Assay_Ng>
Minimum inhibitory concentration of compound against Neisseria gonorrhoeae AS 7720

> <ChEMBL_Data_Neisseria_g: PUBMED_ID>
6379179

> <ChEMBL_Data_Neisseria_g: YEAR>
1984

> <ChEMBL_Data_Neisseria_g: JOURNAL>
J. Med. Chem.

> <ChEMBL_Data_Neisseria_g: VOLUME>
27

> <ChEMBL_Data_Neisseria_g: FIRST_PAGE>
947

> <ChEMBL_Data_Neisseria_g: MIC_vs_Neisseria_microg_per_mL>
8

> <ALogP>
4.95

> <Active>
0

> <Molecular_Weight>
522.169

$$$$

Generated by Molecular Materials Informatics

 57 61  0  0  0  0  0  0  0  0999 V2000
   -4.0498    3.6048    0.0000 C   0  0  0  0  0  0  0  0  0  0  0  0
   -2.5875    3.2823    0.0000 C   0  0  0  0  0  0  0  0  0  0  0  0
   -2.1355    1.8547    0.0000 C   0  0  0  0  0  0  0  0  0  0  0  0
   -0.6733    1.5321    0.0000 C   0  0  0  0  0  0  0  0  0  0  0  0
   -0.2213    0.1045    0.0000 N   0  0  0  0  0  0  0  0  0  0  0  0
    1.2410   -0.2180    0.0000 C   0  0  0  0  0  0  0  0  0  0  0  0
    1.9396   -1.4041    0.0000 N   0  0  0  0  0  0  0  0  0  0  0  0
    3.3302   -1.4454    0.0000 C   0  0  0  0  0  0  0  0  0  0  0  0
    3.6526    0.0168    0.0000 C   0  0  0  0  0  0  0  0  0  0  0  0
    2.2615    0.5888    0.0000 S   0  0  0  0  0  0  0  0  0  0  0  0
    2.6147    1.1068    0.0000 C   0  0  0  0  0  0  0  0  0  0  0  0
    3.6228    2.3411    0.0000 N   0  0  0  0  0  0  0  0  0  0  0  0
    4.9510    3.1614    0.0000 C   0  0  0  0  0  0  0  0  0  0  0  0
    4.4404    4.5692    0.0000 O   0  0  0  0  0  0  0  0  0  0  0  0
    6.5029    3.3845    0.0000 C   0  0  0  0  0  0  0  0  0  0  0  0
    8.0527    3.1064    0.0000 C   0  0  0  0  0  0  0  0  0  0  0  0
    9.4600    2.3918    0.0000 C   0  0  0  0  0  0  0  0  0  0  0  0
   10.5739    1.3577    0.0000 C   0  0  0  0  0  0  0  0  0  0  0  0
   11.3711    0.0780    0.0000 C   0  0  0  0  0  0  0  0  0  0  0  0
   12.7350    0.6963    0.0000 C   0  0  0  0  0  0  0  0  0  0  0  0
   11.8071   -1.3619    0.0000 C   0  0  0  0  0  0  0  0  0  0  0  0
   13.2849   -1.1189    0.0000 O   0  0  0  0  0  0  0  0  0  0  0  0
   11.8552   -2.8645    0.0000 C   0  0  0  0  0  0  0  0  0  0  0  0
   13.3453   -3.0125    0.0000 C   0  0  0  0  0  0  0  0  0  0  0  0
   11.5127   -4.3284    0.0000 C   0  0  0  0  0  0  0  0  0  0  0  0
   12.9138   -4.8570    0.0000 O   0  0  0  0  0  0  0  0  0  0  0  0
   10.8030   -5.6539    0.0000 C   0  0  0  0  0  0  0  0  0  0  0  0
   12.0195   -6.5269    0.0000 C   0  0  0  0  0  0  0  0  0  0  0  0
    9.7745   -6.7502    0.0000 C   0  0  0  0  0  0  0  0  0  0  0  0
   10.7239   -7.9083    0.0000 O   0  0  0  0  0  0  0  0  0  0  0  0
   12.2016   -7.6652    0.0000 C   0  0  0  0  0  0  0  0  0  0  0  0
   12.7300   -6.2641    0.0000 O   0  0  0  0  0  0  0  0  0  0  0  0
   13.1509   -8.8235    0.0000 C   0  0  0  0  0  0  0  0  0  0  0  0
    8.4987   -7.5429    0.0000 C   0  0  0  0  0  0  0  0  0  0  0  0
    9.1167   -8.9068    0.0000 C   0  0  0  0  0  0  0  0  0  0  0  0
    7.0634   -7.9789    0.0000 C   0  0  0  0  0  0  0  0  0  0  0  0
    7.3116   -9.4557    0.0000 O   0  0  0  0  0  0  0  0  0  0  0  0
    6.1568  -10.4090    0.0000 C   0  0  0  0  0  0  0  0  0  0  0  0
    5.5674   -8.0357    0.0000 C   0  0  0  0  0  0  0  0  0  0  0  0
    4.1062   -7.7075    0.0000 C   0  0  0  0  0  0  0  0  0  0  0  0
    2.7641   -7.0345    0.0000 O   0  0  0  0  0  0  0  0  0  0  0  0
    1.6899   -5.9633    0.0000 C   0  0  0  0  0  0  0  0  0  0  0  0
    0.9357   -7.2572    0.0000 C   0  0  0  0  0  0  0  0  0  0  0  0
    0.2292   -5.5564    0.0000 O   0  0  0  0  0  0  0  0  0  0  0  0
    0.1581   -4.0219    0.0000 C   0  0  0  0  0  0  0  0  0  0  0  0
   -0.9953   -3.0361    0.0000 C   0  0  0  0  0  0  0  0  0  0  0  0
   -2.4116   -3.5225    0.0000 C   0  0  0  0  0  0  0  0  0  0  0  0
   -0.6889   -1.5391    0.0000 C   0  0  0  0  0  0  0  0  0  0  0  0
   -1.8491   -0.5925    0.0000 O   0  0  0  0  0  0  0  0  0  0  0  0
    0.7273   -0.9336    0.0000 C   0  0  0  0  0  0  0  0  0  0  0  0
    1.1575    0.5696    0.0000 C   0  0  0  0  0  0  0  0  0  0  0  0
    0.0599    1.5884    0.0000 O   0  0  0  0  0  0  0  0  0  0  0  0
    1.8734   -1.9422    0.0000 C   0  0  0  0  0  0  0  0  0  0  0  0
    1.5846   -3.4886    0.0000 C   0  0  0  0  0  0  0  0  0  0  0  0
    2.5163   -4.6924    0.0000 C   0  0  0  0  0  0  0  0  0  0  0  0
    4.0125   -4.6307    0.0000 O   0  0  0  0  0  0  0  0  0  0  0  0
    6.5291    4.8818    0.0000 C   0  0  0  0  0  0  0  0  0  0  0  0
  1  2  1  0  0  0  0
  2  3  1  0  0  0  0
  3  4  1  0  0  0  0
  4  5  1  0  0  0  0
  5  6  1  0  0  0  0
  6  7  2  0  0  0  0
  7  8  1  0  0  0  0
  8  9  2  0  0  0  0
  9 10  1  0  0  0  0
  6 10  1  0  0  0  0
  9 11  1  0  0  0  0
 11 12  1  0  0  0  0
 12 13  1  0  0  0  0
 13 14  2  0  0  0  0
 13 15  1  0  0  0  0
 15 16  2  0  0  0  0
 16 17  1  0  0  0  0
 17 18  2  0  0  0  0
 18 19  1  0  0  0  0
 19 20  1  0  0  0  0
 19 21  1  0  0  0  0
 21 22  1  0  0  0  0
 21 23  1  0  0  0  0
 23 24  1  0  0  0  0
 23 25  1  0  0  0  0
 25 26  1  0  0  0  0
 25 27  1  0  0  0  0
 27 28  1  0  0  0  0
 27 29  1  0  0  0  0
 29 30  1  0  0  0  0
 30 31  1  0  0  0  0
 31 32  2  0  0  0  0
 31 33  1  0  0  0  0
 29 34  1  0  0  0  0
 34 35  1  0  0  0  0
 34 36  1  0  0  0  0
 36 37  1  0  0  0  0
 37 38  1  0  0  0  0
 36 39  1  0  0  0  0
 39 40  2  0  0  0  0
 40 41  1  0  0  0  0
 41 42  1  0  0  0  0
 42 43  1  0  0  0  0
 42 44  1  0  0  0  0
 44 45  1  0  0  0  0
 45 46  2  0  0  0  0
 46 47  1  0  0  0  0
 46 48  1  0  0  0  0
 48 49  1  0  0  0  0
 48 50  2  0  0  0  0
 50 51  1  0  0  0  0
 11 51  2  0  0  0  0
 51 52  1  0  0  0  0
 50 53  1  0  0  0  0
  8 53  1  0  0  0  0
 53 54  2  0  0  0  0
 45 54  1  0  0  0  0
 54 55  1  0  0  0  0
 42 55  1  0  0  0  0
 55 56  2  0  0  0  0
 15 57  1  0  0  0  0
M  END
> <Molecule Name>
CHEMBL422939

> <IUPAC>
(9E,19E,21Z)-28-(butylamino)-2,15,17,32-tetrahydroxy-11-methoxy-3,7,12,14,16,18,22-heptamethyl-6,23-dioxo-8,33-dioxa-27-thia-24,29-diazapentacyclo[23.6.1.1,.0,.0,]tritriaconta-1
,3,5(31),9,19,21,25(32),26(30),28-nonaen-13-yl acetate

> <Collections>
Set2_NotListedAsBetaLactamResistant (mostly)
TrainingSet_Kleb_p_ALPerryman_JSF

> <ChEMBL_Data_Neisseria_g: NUM_RO5_VIOLATIONS>
4

> <ChEMBL_Data_Neisseria_g: Qualifier_for_MIC_Ng>
=

> <ChEMBL_Data_Neisseria_g: ASSAY_CHEMBLID>
CHEMBL750222

> <ChEMBL_Data_Neisseria_g: DESCRIPTION_of_Assay_Ng>
In vitro antibacterial activity of compound against Neisseria gonorrhoeae ISM 68/126

> <ChEMBL_Data_Neisseria_g: PUBMED_ID>
2329569

> <ChEMBL_Data_Neisseria_g: YEAR>
1990

> <ChEMBL_Data_Neisseria_g: JOURNAL>
J. Med. Chem.

> <ChEMBL_Data_Neisseria_g: VOLUME>
33

> <ChEMBL_Data_Neisseria_g: FIRST_PAGE>
1470

> <ChEMBL_Data_Neisseria_g: MIC_vs_Neisseria_microg_per_mL>
0.125

> <ALogP>
5.576

> <Active>
1

> <Molecular_Weight>
809.965

$$$$

Generated by Molecular Materials Informatics

 55 59  0  0  0  0  0  0  0  0999 V2000
   -2.4961    1.8503    0.0000 C   0  0  0  0  0  0  0  0  0  0  0  0
   -1.0353    1.5280    0.0000 C   0  0  0  0  0  0  0  0  0  0  0  0
   -0.5837    0.1018    0.0000 N   0  0  0  0  0  0  0  0  0  0  0  0
    0.8772   -0.2205    0.0000 C   0  0  0  0  0  0  0  0  0  0  0  0
    1.5752   -1.4053    0.0000 N   0  0  0  0  0  0  0  0  0  0  0  0
    2.9644   -1.4467    0.0000 C   0  0  0  0  0  0  0  0  0  0  0  0
    3.2865    0.0142    0.0000 C   0  0  0  0  0  0  0  0  0  0  0  0
    1.8967    0.5856    0.0000 S   0  0  0  0  0  0  0  0  0  0  0  0
    2.2496    1.1032    0.0000 C   0  0  0  0  0  0  0  0  0  0  0  0
    3.2567    2.3363    0.0000 N   0  0  0  0  0  0  0  0  0  0  0  0
    4.5836    3.1558    0.0000 C   0  0  0  0  0  0  0  0  0  0  0  0
    4.0735    4.5622    0.0000 O   0  0  0  0  0  0  0  0  0  0  0  0
    6.1341    3.3786    0.0000 C   0  0  0  0  0  0  0  0  0  0  0  0
    7.6824    3.1008    0.0000 C   0  0  0  0  0  0  0  0  0  0  0  0
    9.0883    2.3869    0.0000 C   0  0  0  0  0  0  0  0  0  0  0  0
   10.2012    1.3538    0.0000 C   0  0  0  0  0  0  0  0  0  0  0  0
   10.9977    0.0753    0.0000 C   0  0  0  0  0  0  0  0  0  0  0  0
   12.3603    0.6930    0.0000 C   0  0  0  0  0  0  0  0  0  0  0  0
   11.4333   -1.3633    0.0000 C   0  0  0  0  0  0  0  0  0  0  0  0
   12.9096   -1.1205    0.0000 O   0  0  0  0  0  0  0  0  0  0  0  0
   11.4813   -2.8644    0.0000 C   0  0  0  0  0  0  0  0  0  0  0  0
   12.9700   -3.0122    0.0000 C   0  0  0  0  0  0  0  0  0  0  0  0
   11.1391   -4.3269    0.0000 C   0  0  0  0  0  0  0  0  0  0  0  0
   12.5389   -4.8550    0.0000 O   0  0  0  0  0  0  0  0  0  0  0  0
   10.4301   -5.6511    0.0000 C   0  0  0  0  0  0  0  0  0  0  0  0
   11.6454   -6.5234    0.0000 C   0  0  0  0  0  0  0  0  0  0  0  0
    9.4026   -6.7464    0.0000 C   0  0  0  0  0  0  0  0  0  0  0  0
   10.3510   -7.9034    0.0000 O   0  0  0  0  0  0  0  0  0  0  0  0
   11.8273   -7.6606    0.0000 C   0  0  0  0  0  0  0  0  0  0  0  0
   12.3552   -6.2608    0.0000 O   0  0  0  0  0  0  0  0  0  0  0  0
   12.7757   -8.8177    0.0000 C   0  0  0  0  0  0  0  0  0  0  0  0
    8.1280   -7.5383    0.0000 C   0  0  0  0  0  0  0  0  0  0  0  0
    8.7454   -8.9009    0.0000 C   0  0  0  0  0  0  0  0  0  0  0  0
    6.6941   -7.9739    0.0000 C   0  0  0  0  0  0  0  0  0  0  0  0
    6.9420   -9.4493    0.0000 O   0  0  0  0  0  0  0  0  0  0  0  0
    5.7883  -10.4017    0.0000 C   0  0  0  0  0  0  0  0  0  0  0  0
    5.1995   -8.0307    0.0000 C   0  0  0  0  0  0  0  0  0  0  0  0
    3.7397   -7.7028    0.0000 C   0  0  0  0  0  0  0  0  0  0  0  0
    2.3988   -7.0304    0.0000 O   0  0  0  0  0  0  0  0  0  0  0  0
    1.3256   -5.9603    0.0000 C   0  0  0  0  0  0  0  0  0  0  0  0
    0.5722   -7.2529    0.0000 C   0  0  0  0  0  0  0  0  0  0  0  0
   -0.1336   -5.5537    0.0000 O   0  0  0  0  0  0  0  0  0  0  0  0
   -0.2047   -4.0207    0.0000 C   0  0  0  0  0  0  0  0  0  0  0  0
   -1.3570   -3.0358    0.0000 C   0  0  0  0  0  0  0  0  0  0  0  0
   -2.7720   -3.5218    0.0000 C   0  0  0  0  0  0  0  0  0  0  0  0
   -1.0508   -1.5403    0.0000 C   0  0  0  0  0  0  0  0  0  0  0  0
   -2.2100   -0.5946    0.0000 O   0  0  0  0  0  0  0  0  0  0  0  0
    0.3640   -0.9353    0.0000 C   0  0  0  0  0  0  0  0  0  0  0  0
    0.7938    0.5664    0.0000 C   0  0  0  0  0  0  0  0  0  0  0  0
   -0.3028    1.5843    0.0000 O   0  0  0  0  0  0  0  0  0  0  0  0
    1.5090   -1.9430    0.0000 C   0  0  0  0  0  0  0  0  0  0  0  0
    1.2205   -3.4879    0.0000 C   0  0  0  0  0  0  0  0  0  0  0  0
    2.1513   -4.6905    0.0000 C   0  0  0  0  0  0  0  0  0  0  0  0
    3.6461   -4.6289    0.0000 O   0  0  0  0  0  0  0  0  0  0  0  0
    6.1602    4.8745    0.0000 C   0  0  0  0  0  0  0  0  0  0  0  0
  1  2  1  0  0  0  0
  2  3  1  0  0  0  0
  3  4  1  0  0  0  0
  4  5  2  0  0  0  0
  5  6  1  0  0  0  0
  6  7  2  0  0  0  0
  7  8  1  0  0  0  0
  4  8  1  0  0  0  0
  7  9  1  0  0  0  0
  9 10  1  0  0  0  0
 10 11  1  0  0  0  0
 11 12  2  0  0  0  0
 11 13  1  0  0  0  0
 13 14  2  0  0  0  0
 14 15  1  0  0  0  0
 15 16  2  0  0  0  0
 16 17  1  0  0  0  0
 17 18  1  0  0  0  0
 17 19  1  0  0  0  0
 19 20  1  0  0  0  0
 19 21  1  0  0  0  0
 21 22  1  0  0  0  0
 21 23  1  0  0  0  0
 23 24  1  0  0  0  0
 23 25  1  0  0  0  0
 25 26  1  0  0  0  0
 25 27  1  0  0  0  0
 27 28  1  0  0  0  0
 28 29  1  0  0  0  0
 29 30  2  0  0  0  0
 29 31  1  0  0  0  0
 27 32  1  0  0  0  0
 32 33  1  0  0  0  0
 32 34  1  0  0  0  0
 34 35  1  0  0  0  0
 35 36  1  0  0  0  0
 34 37  1  0  0  0  0
 37 38  2  0  0  0  0
 38 39  1  0  0  0  0
 39 40  1  0  0  0  0
 40 41  1  0  0  0  0
 40 42  1  0  0  0  0
 42 43  1  0  0  0  0
 43 44  2  0  0  0  0
 44 45  1  0  0  0  0
 44 46  1  0  0  0  0
 46 47  1  0  0  0  0
 46 48  2  0  0  0  0
 48 49  1  0  0  0  0
  9 49  2  0  0  0  0
 49 50  1  0  0  0  0
 48 51  1  0  0  0  0
  6 51  1  0  0  0  0
 51 52  2  0  0  0  0
 43 52  1  0  0  0  0
 52 53  1  0  0  0  0
 40 53  1  0  0  0  0
 53 54  2  0  0  0  0
 13 55  1  0  0  0  0
M  END
> <Molecule Name>
CHEMBL416220

> <IUPAC>
(9E,19E,21Z)-28-(ethylamino)-2,15,17,32-tetrahydroxy-11-methoxy-3,7,12,14,16,18,22-heptamethyl-6,23-dioxo-8,33-dioxa-27-thia-24,29-diazapentacyclo[23.6.1.1,.0,.0,]tritriaconta-1
,3,5(31),9,19,21,25(32),26(30),28-nonaen-13-yl acetate

> <Collections>
Set2_NotListedAsBetaLactamResistant (mostly)
TrainingSet_Kleb_p_ALPerryman_JSF

> <ChEMBL_Data_Neisseria_g: NUM_RO5_VIOLATIONS>
3

> <ChEMBL_Data_Neisseria_g: Qualifier_for_MIC_Ng>
=

> <ChEMBL_Data_Neisseria_g: ASSAY_CHEMBLID>
CHEMBL750222

> <ChEMBL_Data_Neisseria_g: DESCRIPTION_of_Assay_Ng>
In vitro antibacterial activity of compound against Neisseria gonorrhoeae ISM 68/126

> <ChEMBL_Data_Neisseria_g: PUBMED_ID>
2329569

> <ChEMBL_Data_Neisseria_g: YEAR>
1990

> <ChEMBL_Data_Neisseria_g: JOURNAL>
J. Med. Chem.

> <ChEMBL_Data_Neisseria_g: VOLUME>
33

> <ChEMBL_Data_Neisseria_g: FIRST_PAGE>
1470

> <ChEMBL_Data_Neisseria_g: MIC_vs_Neisseria_microg_per_mL>
0.125

> <ALogP>
4.596

> <Active>
1

> <Molecular_Weight>
781.911

$$$$

Generated by Molecular Materials Informatics

 12 13  0  0  0  0  0  0  0  0999 V2000
    1.3427    1.2988    0.0000 C   0  0  0  0  0  0  0  0  0  0  0  0
    1.3427   -0.2012    0.0000 C   0  0  0  0  0  0  0  0  0  0  0  0
    2.5561   -1.0829    0.0000 C   0  0  0  0  0  0  0  0  0  0  0  0
    2.0927   -2.5094    0.0000 S   0  0  0  0  0  0  0  0  0  0  0  0
    0.5927   -2.5094    0.0000 C   0  0  0  0  0  0  0  0  0  0  0  0
    0.1290   -1.0829    0.0000 N   0  0  0  0  0  0  0  0  0  0  0  0
   -0.2892   -3.7231    0.0000 C   0  0  0  0  0  0  0  0  0  0  0  0
    0.3210   -5.0934    0.0000 C   0  0  0  0  0  0  0  0  0  0  0  0
   -0.5606   -6.3069    0.0000 C   0  0  0  0  0  0  0  0  0  0  0  0
   -2.0524   -6.1501    0.0000 C   0  0  0  0  0  0  0  0  0  0  0  0
   -2.6626   -4.7798    0.0000 N   0  0  0  0  0  0  0  0  0  0  0  0
   -1.7808   -3.5661    0.0000 C   0  0  0  0  0  0  0  0  0  0  0  0
  1  2  1  0  0  0  0
  2  3  2  0  0  0  0
  3  4  1  0  0  0  0
  4  5  1  0  0  0  0
  5  6  2  0  0  0  0
  2  6  1  0  0  0  0
  5  7  1  0  0  0  0
  7  8  2  0  0  0  0
  8  9  1  0  0  0  0
  9 10  2  0  0  0  0
 10 11  1  0  0  0  0
 11 12  2  0  0  0  0
  7 12  1  0  0  0  0
M  END
> <Molecule Name>
CHEMBL410355

> <CDD Number>
CDD-217933

> <IUPAC>
3-(4-methyl-1,3-thiazol-2-yl)pyridine

> <Collections>
TrainingSet_Kleb_p_ALPerryman_JSF

> <ChEMBL_Data_Neisseria_g: NUM_RO5_VIOLATIONS>
0

> <ChEMBL_Data_Neisseria_g: Qualifier_for_MIC_Ng>
=

> <ChEMBL_Data_Neisseria_g: ASSAY_CHEMBLID>
CHEMBL2343213

> <ChEMBL_Data_Neisseria_g: DESCRIPTION_of_Assay_Ng>
Antibacterial activity against Neisseria gonorrhoeae RCMB 010076 assessed as growth inhibition after 24 hrs by twofold serial dilution method

> <ChEMBL_Data_Neisseria_g: PUBMED_ID>
23357308

> <ChEMBL_Data_Neisseria_g: YEAR>
2013

> <ChEMBL_Data_Neisseria_g: JOURNAL>
Eur. J. Med. Chem.

> <ChEMBL_Data_Neisseria_g: VOLUME>
62

> <ChEMBL_Data_Neisseria_g: FIRST_PAGE>
270

> <ChEMBL_Data_Neisseria_g: MIC_vs_Neisseria_microg_per_mL>
62.5

> <ALogP>
1.342

> <Active>
0

> <Molecular_Weight>
176.238

> <ChEMBL_Data_Neisseria_g: STRAIN_of_Ng>
RCMB 010076

$$$$

Generated by Molecular Materials Informatics

 49 53  0  0  0  0  0  0  0  0999 V2000
    0.3854    7.6197    0.0000 C   0  0  0  0  0  0  0  0  0  0  0  0
   -0.3625    6.3216    0.0000 O   0  0  0  0  0  0  0  0  0  0  0  0
    0.3879    5.0247    0.0000 C   0  0  0  0  0  0  0  0  0  0  0  0
    1.7747    5.6124    0.0000 C   0  0  0  0  0  0  0  0  0  0  0  0
    3.2782    5.8536    0.0000 C   0  0  0  0  0  0  0  0  0  0  0  0
    4.8310    5.8953    0.0000 O   0  0  0  0  0  0  0  0  0  0  0  0
    6.0850    4.9557    0.0000 C   0  0  0  0  0  0  0  0  0  0  0  0
    7.5803    4.8645    0.0000 C   0  0  0  0  0  0  0  0  0  0  0  0
    4.7861    4.2093    0.0000 O   0  0  0  0  0  0  0  0  0  0  0  0
    4.9615    2.7332    0.0000 C   0  0  0  0  0  0  0  0  0  0  0  0
    3.8931    1.6426    0.0000 C   0  0  0  0  0  0  0  0  0  0  0  0
    2.4323    1.9753    0.0000 C   0  0  0  0  0  0  0  0  0  0  0  0
    4.3744    0.2241    0.0000 C   0  0  0  0  0  0  0  0  0  0  0  0
    3.3712   -0.8888    0.0000 O   0  0  0  0  0  0  0  0  0  0  0  0
    5.8558   -0.1128    0.0000 C   0  0  0  0  0  0  0  0  0  0  0  0
    6.2758   -1.5617    0.0000 C   0  0  0  0  0  0  0  0  0  0  0  0
    5.1995   -2.6039    0.0000 O   0  0  0  0  0  0  0  0  0  0  0  0
    7.6969   -2.0237    0.0000 C   0  0  0  0  0  0  0  0  0  0  0  0
    7.1505   -3.4952    0.0000 N   0  0  0  0  0  0  0  0  0  0  0  0
    6.2085   -4.7162    0.0000 C   0  0  0  0  0  0  0  0  0  0  0  0
    7.1822   -5.8551    0.0000 O   0  0  0  0  0  0  0  0  0  0  0  0
    4.8157   -5.4795    0.0000 C   0  0  0  0  0  0  0  0  0  0  0  0
    3.2599   -5.7461    0.0000 C   0  0  0  0  0  0  0  0  0  0  0  0
    1.6648   -5.5489    0.0000 C   0  0  0  0  0  0  0  0  0  0  0  0
    0.2793   -4.9574    0.0000 C   0  0  0  0  0  0  0  0  0  0  0  0
   -0.9064   -4.0250    0.0000 C   0  0  0  0  0  0  0  0  0  0  0  0
   -1.9788   -5.0711    0.0000 C   0  0  0  0  0  0  0  0  0  0  0  0
   -1.8066   -2.8197    0.0000 C   0  0  0  0  0  0  0  0  0  0  0  0
   -3.1137   -3.5519    0.0000 O   0  0  0  0  0  0  0  0  0  0  0  0
   -2.3642   -1.4224    0.0000 C   0  0  0  0  0  0  0  0  0  0  0  0
   -3.8163   -1.7914    0.0000 C   0  0  0  0  0  0  0  0  0  0  0  0
   -2.5410    0.0715    0.0000 C   0  0  0  0  0  0  0  0  0  0  0  0
   -4.0393    0.0910    0.0000 O   0  0  0  0  0  0  0  0  0  0  0  0
   -2.3255    1.5600    0.0000 C   0  0  0  0  0  0  0  0  0  0  0  0
   -3.7676    1.9663    0.0000 C   0  0  0  0  0  0  0  0  0  0  0  0
   -1.7329    2.9413    0.0000 C   0  0  0  0  0  0  0  0  0  0  0  0
   -3.0210    3.7061    0.0000 O   0  0  0  0  0  0  0  0  0  0  0  0
   -0.8058    4.1205    0.0000 C   0  0  0  0  0  0  0  0  0  0  0  0
   -1.8557    5.1894    0.0000 C   0  0  0  0  0  0  0  0  0  0  0  0
    5.3090   -6.8942    0.0000 C   0  0  0  0  0  0  0  0  0  0  0  0
    8.7359   -0.9075    0.0000 C   0  0  0  0  0  0  0  0  0  0  0  0
   10.2295   -1.0259    0.0000 S   0  0  0  0  0  0  0  0  0  0  0  0
   10.8035    0.3581    0.0000 C   0  0  0  0  0  0  0  0  0  0  0  0
    9.6648    1.3317    0.0000 N   0  0  0  0  0  0  0  0  0  0  0  0
    8.3869    0.5495    0.0000 C   0  0  0  0  0  0  0  0  0  0  0  0
    6.9362    0.9843    0.0000 C   0  0  0  0  0  0  0  0  0  0  0  0
    6.4653    2.4938    0.0000 C   0  0  0  0  0  0  0  0  0  0  0  0
    7.1672    3.8641    0.0000 C   0  0  0  0  0  0  0  0  0  0  0  0
    8.6476    4.0936    0.0000 O   0  0  0  0  0  0  0  0  0  0  0  0
  1  2  1  0  0  0  0
  2  3  1  0  0  0  0
  3  4  1  0  0  0  0
  4  5  2  0  0  0  0
  5  6  1  0  0  0  0
  6  7  1  0  0  0  0
  7  8  1  0  0  0  0
  7  9  1  0  0  0  0
  9 10  1  0  0  0  0
 10 11  2  0  0  0  0
 11 12  1  0  0  0  0
 11 13  1  0  0  0  0
 13 14  1  0  0  0  0
 13 15  2  0  0  0  0
 15 16  1  0  0  0  0
 16 17  1  0  0  0  0
 16 18  2  0  0  0  0
 18 19  1  0  0  0  0
 19 20  1  0  0  0  0
 20 21  2  0  0  0  0
 20 22  1  0  0  0  0
 22 23  2  0  0  0  0
 23 24  1  0  0  0  0
 24 25  2  0  0  0  0
 25 26  1  0  0  0  0
 26 27  1  0  0  0  0
 26 28  1  0  0  0  0
 28 29  1  0  0  0  0
 28 30  1  0  0  0  0
 30 31  1  0  0  0  0
 30 32  1  0  0  0  0
 32 33  1  0  0  0  0
 32 34  1  0  0  0  0
 34 35  1  0  0  0  0
 34 36  1  0  0  0  0
 36 37  1  0  0  0  0
 36 38  1  0  0  0  0
  3 38  1  0  0  0  0
 38 39  1  0  0  0  0
 22 40  1  0  0  0  0
 18 41  1  0  0  0  0
 41 42  1  0  0  0  0
 42 43  1  0  0  0  0
 43 44  2  0  0  0  0
 44 45  1  0  0  0  0
 41 45  2  0  0  0  0
 45 46  1  0  0  0  0
 15 46  1  0  0  0  0
 46 47  2  0  0  0  0
 10 47  1  0  0  0  0
 47 48  1  0  0  0  0
  7 48  1  0  0  0  0
 48 49  2  0  0  0  0
M  END
> <Molecule Name>
CHEMBL407311

> <IUPAC>
(9E,19E,21Z)-2,13,15,17,32-pentahydroxy-11-methoxy-3,7,12,14,16,18,22-heptamethyl-8,33-dioxa-27-thia-24,29-diazapentacyclo[23.6.1.1,.0,.0,]tritriaconta-1,3,5(31),9,19,21,25(32),
26(30),28-nonaene-6,23-dione

> <Collections>
Set2_NotListedAsBetaLactamResistant (mostly)
TrainingSet_Kleb_p_ALPerryman_JSF

> <ChEMBL_Data_Neisseria_g: NUM_RO5_VIOLATIONS>
3

> <ChEMBL_Data_Neisseria_g: Qualifier_for_MIC_Ng>
=

> <ChEMBL_Data_Neisseria_g: ASSAY_CHEMBLID>
CHEMBL750222

> <ChEMBL_Data_Neisseria_g: DESCRIPTION_of_Assay_Ng>
In vitro antibacterial activity of compound against Neisseria gonorrhoeae ISM 68/126

> <ChEMBL_Data_Neisseria_g: PUBMED_ID>
2329569

> <ChEMBL_Data_Neisseria_g: YEAR>
1990

> <ChEMBL_Data_Neisseria_g: JOURNAL>
J. Med. Chem.

> <ChEMBL_Data_Neisseria_g: VOLUME>
33

> <ChEMBL_Data_Neisseria_g: FIRST_PAGE>
1470

> <ChEMBL_Data_Neisseria_g: MIC_vs_Neisseria_microg_per_mL>
0.125

> <ALogP>
3.518

> <Active>
1

> <Molecular_Weight>
696.807

$$$$

Generated by Molecular Materials Informatics

 13 13  0  0  0  0  0  0  0  0999 V2000
    2.8903    3.3187    0.0000 C   0  0  0  0  0  0  0  0  0  0  0  0
    1.5914    2.5687    0.0000 O   0  0  0  0  0  0  0  0  0  0  0  0
    1.5914    1.0687    0.0000 C   0  0  0  0  0  0  0  0  0  0  0  0
    2.8903    0.3188    0.0000 C   0  0  0  0  0  0  0  0  0  0  0  0
    2.8903   -1.1812    0.0000 C   0  0  0  0  0  0  0  0  0  0  0  0
    1.5914   -1.9312    0.0000 C   0  0  0  0  0  0  0  0  0  0  0  0
    0.2923   -1.1812    0.0000 C   0  0  0  0  0  0  0  0  0  0  0  0
    0.2923    0.3188    0.0000 C   0  0  0  0  0  0  0  0  0  0  0  0
   -1.0068    1.0687    0.0000 C   0  0  0  0  0  0  0  0  0  0  0  0
   -1.0068    2.5687    0.0000 C   0  0  0  0  0  0  0  0  0  0  0  0
   -2.3057    3.3187    0.0000 N   0  4  0  0  0  0  0  0  0  0  0  0
   -3.6048    2.5687    0.0000 O   0  0  0  0  0  0  0  0  0  0  0  0
   -2.3057    4.8187    0.0000 O   0  5  0  0  0  0  0  0  0  0  0  0
  1  2  1  0  0  0  0
  2  3  1  0  0  0  0
  3  4  2  0  0  0  0
  4  5  1  0  0  0  0
  5  6  2  0  0  0  0
  6  7  1  0  0  0  0
  7  8  2  0  0  0  0
  3  8  1  0  0  0  0
  8  9  1  0  0  0  0
  9 10  2  0  0  0  0
 10 11  1  0  0  0  0
 11 12  2  0  0  0  0
 11 13  1  0  0  0  0
M  CHG  1  13  -1
M  RAD  1  11   2
M  END
> <Molecule Name>
CHEMBL388939

> <IUPAC>
{hydroxy[(E)-2-(2-methoxyphenyl)ethenyl]amino}oxidanyl

> <ChEMBL_Data_Neisseria_g: NUM_RO5_VIOLATIONS>
0

> <ChEMBL_Data_Neisseria_g: Qualifier_for_MIC_Ng>
=

> <ChEMBL_Data_Neisseria_g: ASSAY_CHEMBLID>
CHEMBL1073951

> <ChEMBL_Data_Neisseria_g: DESCRIPTION_of_Assay_Ng>
Antimicrobial activity against Neisseria gonorrhoeae ATCC 49226 by broth microdilution susceptibility assay

> <ChEMBL_Data_Neisseria_g: PUBMED_ID>
19709889

> <ChEMBL_Data_Neisseria_g: YEAR>
2009

> <ChEMBL_Data_Neisseria_g: JOURNAL>
Bioorg. Med. Chem.

> <ChEMBL_Data_Neisseria_g: VOLUME>
17

> <ChEMBL_Data_Neisseria_g: FIRST_PAGE>
6606

> <ChEMBL_Data_Neisseria_g: MIC_vs_Neisseria_microg_per_mL>
2

> <ALogP>
1.793

> <Active>
1

> <Molecular_Weight>
179.173

> <ChEMBL_Data_Neisseria_g: STRAIN_of_Ng>
ATCC 49226

$$$$

Generated by Molecular Materials Informatics

 28 32  0  0  0  0  0  0  0  0999 V2000
   -3.3024   -6.9142    0.0000 C   0  0  0  0  0  0  0  0  0  0  0  0
   -2.1767   -5.9229    0.0000 C   0  0  0  0  0  0  0  0  0  0  0  0
   -2.4724   -4.4524    0.0000 C   0  0  0  0  0  0  0  0  0  0  0  0
   -1.3466   -3.4609    0.0000 C   0  0  0  0  0  0  0  0  0  0  0  0
    0.0747   -3.9402    0.0000 C   0  0  0  0  0  0  0  0  0  0  0  0
    0.3705   -5.4107    0.0000 C   0  0  0  0  0  0  0  0  0  0  0  0
   -0.7553   -6.4020    0.0000 C   0  0  0  0  0  0  0  0  0  0  0  0
    1.2005   -2.9489    0.0000 S   0  0  0  0  0  0  0  0  0  0  0  0
    2.1918   -4.0746    0.0000 O   0  0  0  0  0  0  0  0  0  0  0  0
    0.2091   -1.8231    0.0000 O   0  0  0  0  0  0  0  0  0  0  0  0
    2.3261   -1.9575    0.0000 N   0  0  0  0  0  0  0  0  0  0  0  0
    2.0305   -0.4869    0.0000 N   0  0  0  0  0  0  0  0  0  0  0  0
    3.1561    0.5043    0.0000 C   0  0  0  0  0  0  0  0  0  0  0  0
    4.5776    0.0252    0.0000 C   0  0  0  0  0  0  0  0  0  0  0  0
    5.7032    1.0165    0.0000 C   0  0  0  0  0  0  0  0  0  0  0  0
    7.1247    0.5372    0.0000 C   0  0  0  0  0  0  0  0  0  0  0  0
    8.4319    1.2729    0.0000 C   0  0  0  0  0  0  0  0  0  0  0  0
    9.5356    0.2571    0.0000 C   0  0  0  0  0  0  0  0  0  0  0  0
   11.0288    0.3974    0.0000 C   0  0  0  0  0  0  0  0  0  0  0  0
   11.8972   -0.8258    0.0000 C   0  0  0  0  0  0  0  0  0  0  0  0
   11.2719   -2.1893    0.0000 C   0  0  0  0  0  0  0  0  0  0  0  0
    9.7785   -2.3297    0.0000 C   0  0  0  0  0  0  0  0  0  0  0  0
    8.9103   -1.1066    0.0000 C   0  0  0  0  0  0  0  0  0  0  0  0
    7.4203   -0.9333    0.0000 C   0  0  0  0  0  0  0  0  0  0  0  0
    6.2947   -1.9246    0.0000 C   0  0  0  0  0  0  0  0  0  0  0  0
    4.8732   -1.4453    0.0000 C   0  0  0  0  0  0  0  0  0  0  0  0
    3.7476   -2.4367    0.0000 B   0  0  0  0  0  0  0  0  0  0  0  0
    4.0432   -3.9073    0.0000 O   0  0  0  0  0  0  0  0  0  0  0  0
  1  2  1  0  0  0  0
  2  3  2  0  0  0  0
  3  4  1  0  0  0  0
  4  5  2  0  0  0  0
  5  6  1  0  0  0  0
  6  7  2  0  0  0  0
  2  7  1  0  0  0  0
  5  8  1  0  0  0  0
  8  9  2  0  0  0  0
  8 10  2  0  0  0  0
  8 11  1  0  0  0  0
 11 12  1  0  0  0  0
 12 13  2  0  0  0  0
 13 14  1  0  0  0  0
 14 15  2  0  0  0  0
 15 16  1  0  0  0  0
 16 17  1  0  0  0  0
 17 18  1  0  0  0  0
 18 19  2  0  0  0  0
 19 20  1  0  0  0  0
 20 21  2  0  0  0  0
 21 22  1  0  0  0  0
 22 23  2  0  0  0  0
 18 23  1  0  0  0  0
 23 24  1  0  0  0  0
 16 24  2  0  0  0  0
 24 25  1  0  0  0  0
 25 26  2  0  0  0  0
 14 26  1  0  0  0  0
 26 27  1  0  0  0  0
 11 27  1  0  0  0  0
 27 28  1  0  0  0  0
M  END
> <Molecule Name>
CHEMBL369866

> <IUPAC>
2-(4-methylbenzenesulfonyl)-1H,2H,6H-fluoreno[3,2-d][1,2,3]diazaborinin-1-ol

> <Collections>
TrainingSet_Kleb_p_ALPerryman_JSF

> <ChEMBL_Data_Neisseria_g: Qualifier_for_MIC_Ng>
=

> <ChEMBL_Data_Neisseria_g: ASSAY_CHEMBLID>
CHEMBL858169

> <ChEMBL_Data_Neisseria_g: DESCRIPTION_of_Assay_Ng>
Minimum inhibitory concentration of compound against Neisseria gonorrhoeae W2

> <ChEMBL_Data_Neisseria_g: PUBMED_ID>
6379179

> <ChEMBL_Data_Neisseria_g: YEAR>
1984

> <ChEMBL_Data_Neisseria_g: JOURNAL>
J. Med. Chem.

> <ChEMBL_Data_Neisseria_g: VOLUME>
27

> <ChEMBL_Data_Neisseria_g: FIRST_PAGE>
947

> <ChEMBL_Data_Neisseria_g: MIC_vs_Neisseria_microg_per_mL>
8

> <ALogP>
5.053

> <Active>
1

> <Molecular_Weight>
388.247

$$$$

Generated by Molecular Materials Informatics

 18 19  0  0  0  0  0  0  0  0999 V2000
    8.9895    3.4354    0.0000 C   0  0  0  0  0  0  0  0  0  0  0  0
    7.6904    2.6854    0.0000 C   0  0  0  0  0  0  0  0  0  0  0  0
    6.3913    3.4354    0.0000 C   0  0  0  0  0  0  0  0  0  0  0  0
    5.0924    2.6854    0.0000 S   0  0  0  0  0  0  0  0  0  0  0  0
    4.3424    3.9845    0.0000 O   0  0  0  0  0  0  0  0  0  0  0  0
    5.8424    1.3865    0.0000 O   0  0  0  0  0  0  0  0  0  0  0  0
    3.7933    1.9354    0.0000 N   0  0  0  0  0  0  0  0  0  0  0  0
    3.7933    0.4354    0.0000 C   0  0  0  0  0  0  0  0  0  0  0  0
    2.4943   -0.3146    0.0000 C   0  0  0  0  0  0  0  0  0  0  0  0
    1.1952    0.4354    0.0000 C   0  0  0  0  0  0  0  0  0  0  0  0
   -0.2314   -0.0281    0.0000 C   0  0  0  0  0  0  0  0  0  0  0  0
   -1.1130    1.1854    0.0000 C   0  0  0  0  0  0  0  0  0  0  0  0
   -2.6130    1.1854    0.0000 C   0  0  0  0  0  0  0  0  0  0  0  0
   -3.3630   -0.1135    0.0000 C   0  0  0  0  0  0  0  0  0  0  0  0
   -0.2314    2.3990    0.0000 S   0  0  0  0  0  0  0  0  0  0  0  0
    1.1952    1.9354    0.0000 C   0  0  0  0  0  0  0  0  0  0  0  0
    2.4943    2.6854    0.0000 B   0  0  0  0  0  0  0  0  0  0  0  0
    2.4943    4.1854    0.0000 O   0  0  0  0  0  0  0  0  0  0  0  0
  1  2  1  0  0  0  0
  2  3  1  0  0  0  0
  3  4  1  0  0  0  0
  4  5  2  0  0  0  0
  4  6  2  0  0  0  0
  4  7  1  0  0  0  0
  7  8  1  0  0  0  0
  8  9  2  0  0  0  0
  9 10  1  0  0  0  0
 10 11  1  0  0  0  0
 11 12  2  0  0  0  0
 12 13  1  0  0  0  0
 13 14  1  0  0  0  0
 12 15  1  0  0  0  0
 15 16  1  0  0  0  0
 10 16  2  0  0  0  0
 16 17  1  0  0  0  0
  7 17  1  0  0  0  0
 17 18  1  0  0  0  0
M  END
> <Molecule Name>
CHEMBL369493

> <IUPAC>
6-ethyl-2-(propane-1-sulfonyl)-1H,2H-thieno[2,3-c][1,2]azaborinin-1-ol

> <Collections>
TrainingSet_Kleb_p_ALPerryman_JSF

> <ChEMBL_Data_Neisseria_g: Qualifier_for_MIC_Ng>
=

> <ChEMBL_Data_Neisseria_g: ASSAY_CHEMBLID>
CHEMBL753615

> <ChEMBL_Data_Neisseria_g: DESCRIPTION_of_Assay_Ng>
Minimum inhibitory concentration of compound against Neisseria gonorrhoeae AS 7720

> <ChEMBL_Data_Neisseria_g: PUBMED_ID>
6379179

> <ChEMBL_Data_Neisseria_g: YEAR>
1984

> <ChEMBL_Data_Neisseria_g: JOURNAL>
J. Med. Chem.

> <ChEMBL_Data_Neisseria_g: VOLUME>
27

> <ChEMBL_Data_Neisseria_g: FIRST_PAGE>
947

> <ChEMBL_Data_Neisseria_g: MIC_vs_Neisseria_microg_per_mL>
0.5

> <ALogP>
2.553

> <Active>
1

> <Molecular_Weight>
285.191

$$$$

Generated by Molecular Materials Informatics

 18 19  0  0  0  0  0  0  0  0999 V2000
    8.8208    3.4354    0.0000 C   0  0  0  0  0  0  0  0  0  0  0  0
    7.5217    2.6854    0.0000 C   0  0  0  0  0  0  0  0  0  0  0  0
    7.5217    1.1854    0.0000 C   0  0  0  0  0  0  0  0  0  0  0  0
    6.2226    3.4354    0.0000 C   0  0  0  0  0  0  0  0  0  0  0  0
    4.9237    2.6854    0.0000 S   0  0  0  0  0  0  0  0  0  0  0  0
    4.1737    3.9845    0.0000 O   0  0  0  0  0  0  0  0  0  0  0  0
    5.6737    1.3865    0.0000 O   0  0  0  0  0  0  0  0  0  0  0  0
    3.6246    1.9354    0.0000 N   0  0  0  0  0  0  0  0  0  0  0  0
    3.6246    0.4354    0.0000 C   0  0  0  0  0  0  0  0  0  0  0  0
    2.3255   -0.3146    0.0000 C   0  0  0  0  0  0  0  0  0  0  0  0
    1.0264    0.4354    0.0000 C   0  0  0  0  0  0  0  0  0  0  0  0
   -0.4001   -0.0281    0.0000 C   0  0  0  0  0  0  0  0  0  0  0  0
   -1.2818    1.1854    0.0000 C   0  0  0  0  0  0  0  0  0  0  0  0
   -2.7818    1.1854    0.0000 C   0  0  0  0  0  0  0  0  0  0  0  0
   -0.4001    2.3990    0.0000 S   0  0  0  0  0  0  0  0  0  0  0  0
    1.0264    1.9354    0.0000 C   0  0  0  0  0  0  0  0  0  0  0  0
    2.3255    2.6854    0.0000 B   0  0  0  0  0  0  0  0  0  0  0  0
    2.3255    4.1854    0.0000 O   0  0  0  0  0  0  0  0  0  0  0  0
  1  2  1  0  0  0  0
  2  3  1  0  0  0  0
  2  4  1  0  0  0  0
  4  5  1  0  0  0  0
  5  6  2  0  0  0  0
  5  7  2  0  0  0  0
  5  8  1  0  0  0  0
  8  9  1  0  0  0  0
  9 10  2  0  0  0  0
 10 11  1  0  0  0  0
 11 12  1  0  0  0  0
 12 13  2  0  0  0  0
 13 14  1  0  0  0  0
 13 15  1  0  0  0  0
 15 16  1  0  0  0  0
 11 16  2  0  0  0  0
 16 17  1  0  0  0  0
  8 17  1  0  0  0  0
 17 18  1  0  0  0  0
M  END
> <Molecule Name>
CHEMBL369429

> <IUPAC>
6-methyl-2-(2-methylpropanesulfonyl)-1H,2H-thieno[2,3-c][1,2]azaborinin-1-ol

> <Collections>
TrainingSet_Kleb_p_ALPerryman_JSF

> <ChEMBL_Data_Neisseria_g: Qualifier_for_MIC_Ng>
=

> <ChEMBL_Data_Neisseria_g: ASSAY_CHEMBLID>
CHEMBL753615

> <ChEMBL_Data_Neisseria_g: DESCRIPTION_of_Assay_Ng>
Minimum inhibitory concentration of compound against Neisseria gonorrhoeae AS 7720

> <ChEMBL_Data_Neisseria_g: PUBMED_ID>
6379179

> <ChEMBL_Data_Neisseria_g: YEAR>
1984

> <ChEMBL_Data_Neisseria_g: JOURNAL>
J. Med. Chem.

> <ChEMBL_Data_Neisseria_g: VOLUME>
27

> <ChEMBL_Data_Neisseria_g: FIRST_PAGE>
947

> <ChEMBL_Data_Neisseria_g: MIC_vs_Neisseria_microg_per_mL>
1

> <ALogP>
2.205

> <Active>
1

> <Molecular_Weight>
285.191

$$$$

Generated by Molecular Materials Informatics

 18 19  0  0  0  0  0  0  0  0999 V2000
   -3.7670   -4.6499    0.0000 C   0  0  0  0  0  0  0  0  0  0  0  0
   -2.4681   -3.8999    0.0000 C   0  0  0  0  0  0  0  0  0  0  0  0
   -2.4681   -2.4000    0.0000 C   0  0  0  0  0  0  0  0  0  0  0  0
   -1.1691   -1.6500    0.0000 S   0  0  0  0  0  0  0  0  0  0  0  0
   -0.4191   -2.9491    0.0000 O   0  0  0  0  0  0  0  0  0  0  0  0
   -1.9190   -0.3509    0.0000 O   0  0  0  0  0  0  0  0  0  0  0  0
    0.1300   -0.9000    0.0000 N   0  0  0  0  0  0  0  0  0  0  0  0
    0.1300    0.5999    0.0000 N   0  0  0  0  0  0  0  0  0  0  0  0
    1.4289    1.3499    0.0000 C   0  0  0  0  0  0  0  0  0  0  0  0
    2.7279    0.5999    0.0000 C   0  0  0  0  0  0  0  0  0  0  0  0
    4.0270    1.3499    0.0000 C   0  0  0  0  0  0  0  0  0  0  0  0
    5.3260    0.5999    0.0000 C   0  0  0  0  0  0  0  0  0  0  0  0
    6.6249    1.3499    0.0000 C   0  0  0  0  0  0  0  0  0  0  0  0
    5.3260   -0.9000    0.0000 C   0  0  0  0  0  0  0  0  0  0  0  0
    4.0270   -1.6500    0.0000 C   0  0  0  0  0  0  0  0  0  0  0  0
    2.7279   -0.9000    0.0000 C   0  0  0  0  0  0  0  0  0  0  0  0
    1.4289   -1.6500    0.0000 B   0  0  0  0  0  0  0  0  0  0  0  0
    1.4289   -3.1500    0.0000 O   0  0  0  0  0  0  0  0  0  0  0  0
  1  2  1  0  0  0  0
  2  3  1  0  0  0  0
  3  4  1  0  0  0  0
  4  5  2  0  0  0  0
  4  6  2  0  0  0  0
  4  7  1  0  0  0  0
  7  8  1  0  0  0  0
  8  9  2  0  0  0  0
  9 10  1  0  0  0  0
 10 11  2  0  0  0  0
 11 12  1  0  0  0  0
 12 13  1  0  0  0  0
 12 14  2  0  0  0  0
 14 15  1  0  0  0  0
 15 16  2  0  0  0  0
 10 16  1  0  0  0  0
 16 17  1  0  0  0  0
  7 17  1  0  0  0  0
 17 18  1  0  0  0  0
M  END
> <Molecule Name>
CHEMBL368736

> <IUPAC>
6-methyl-2-(propane-1-sulfonyl)-1,2-dihydro-2,3,1-benzodiazaborinin-1-ol

> <Collections>
TrainingSet_Kleb_p_ALPerryman_JSF

> <ChEMBL_Data_Neisseria_g: Qualifier_for_MIC_Ng>
=

> <ChEMBL_Data_Neisseria_g: ASSAY_CHEMBLID>
CHEMBL753615

> <ChEMBL_Data_Neisseria_g: DESCRIPTION_of_Assay_Ng>
Minimum inhibitory concentration of compound against Neisseria gonorrhoeae AS 7720

> <ChEMBL_Data_Neisseria_g: PUBMED_ID>
6379179

> <ChEMBL_Data_Neisseria_g: YEAR>
1984

> <ChEMBL_Data_Neisseria_g: JOURNAL>
J. Med. Chem.

> <ChEMBL_Data_Neisseria_g: VOLUME>
27

> <ChEMBL_Data_Neisseria_g: FIRST_PAGE>
947

> <ChEMBL_Data_Neisseria_g: MIC_vs_Neisseria_microg_per_mL>
2

> <ALogP>
2.686

> <Active>
1

> <Molecular_Weight>
266.124

$$$$

Generated by Molecular Materials Informatics

 23 25  0  0  0  0  0  0  0  0999 V2000
    9.8274    5.3479    0.0000 C   0  0  0  0  0  0  0  0  0  0  0  0
    8.5285    4.5979    0.0000 C   0  0  0  0  0  0  0  0  0  0  0  0
    8.5285    3.0979    0.0000 C   0  0  0  0  0  0  0  0  0  0  0  0
    7.2294    2.3479    0.0000 C   0  0  0  0  0  0  0  0  0  0  0  0
    7.2294    0.8479    0.0000 C   0  0  0  0  0  0  0  0  0  0  0  0
    5.9303    3.0979    0.0000 C   0  0  0  0  0  0  0  0  0  0  0  0
    5.9303    4.5979    0.0000 C   0  0  0  0  0  0  0  0  0  0  0  0
    4.6314    5.3479    0.0000 C   0  0  0  0  0  0  0  0  0  0  0  0
    7.2294    5.3479    0.0000 C   0  0  0  0  0  0  0  0  0  0  0  0
    4.6314    2.3479    0.0000 S   0  0  0  0  0  0  0  0  0  0  0  0
    3.8814    3.6470    0.0000 O   0  0  0  0  0  0  0  0  0  0  0  0
    5.3814    1.0490    0.0000 O   0  0  0  0  0  0  0  0  0  0  0  0
    3.3323    1.5979    0.0000 N   0  0  0  0  0  0  0  0  0  0  0  0
    3.3323    0.0979    0.0000 N   0  0  0  0  0  0  0  0  0  0  0  0
    2.0332   -0.6521    0.0000 C   0  0  0  0  0  0  0  0  0  0  0  0
    0.7342    0.0979    0.0000 C   0  0  0  0  0  0  0  0  0  0  0  0
   -0.6924   -0.3656    0.0000 S   0  0  0  0  0  0  0  0  0  0  0  0
   -1.5740    0.8479    0.0000 C   0  0  0  0  0  0  0  0  0  0  0  0
   -3.0740    0.8479    0.0000 Br  0  0  0  0  0  0  0  0  0  0  0  0
   -0.6924    2.0615    0.0000 C   0  0  0  0  0  0  0  0  0  0  0  0
    0.7342    1.5979    0.0000 C   0  0  0  0  0  0  0  0  0  0  0  0
    2.0332    2.3479    0.0000 B   0  0  0  0  0  0  0  0  0  0  0  0
    2.0332    3.8479    0.0000 O   0  0  0  0  0  0  0  0  0  0  0  0
  1  2  1  0  0  0  0
  2  3  2  0  0  0  0
  3  4  1  0  0  0  0
  4  5  1  0  0  0  0
  4  6  2  0  0  0  0
  6  7  1  0  0  0  0
  7  8  1  0  0  0  0
  7  9  2  0  0  0  0
  2  9  1  0  0  0  0
  6 10  1  0  0  0  0
 10 11  2  0  0  0  0
 10 12  2  0  0  0  0
 10 13  1  0  0  0  0
 13 14  1  0  0  0  0
 14 15  2  0  0  0  0
 15 16  1  0  0  0  0
 16 17  1  0  0  0  0
 17 18  1  0  0  0  0
 18 19  1  0  0  0  0
 18 20  2  0  0  0  0
 20 21  1  0  0  0  0
 16 21  2  0  0  0  0
 21 22  1  0  0  0  0
 13 22  1  0  0  0  0
 22 23  1  0  0  0  0
M  END
> <Molecule Name>
CHEMBL368721

> <IUPAC>
6-bromo-2-(2,4,6-trimethylbenzenesulfonyl)-1H,2H-thieno[3,2-d][1,2,3]diazaborinin-1-ol

> <Collections>
TrainingSet_Kleb_p_ALPerryman_JSF

> <ChEMBL_Data_Neisseria_g: Qualifier_for_MIC_Ng>
=

> <ChEMBL_Data_Neisseria_g: ASSAY_CHEMBLID>
CHEMBL858169

> <ChEMBL_Data_Neisseria_g: DESCRIPTION_of_Assay_Ng>
Minimum inhibitory concentration of compound against Neisseria gonorrhoeae W2

> <ChEMBL_Data_Neisseria_g: PUBMED_ID>
6379179

> <ChEMBL_Data_Neisseria_g: YEAR>
1984

> <ChEMBL_Data_Neisseria_g: JOURNAL>
J. Med. Chem.

> <ChEMBL_Data_Neisseria_g: VOLUME>
27

> <ChEMBL_Data_Neisseria_g: FIRST_PAGE>
947

> <ChEMBL_Data_Neisseria_g: MIC_vs_Neisseria_microg_per_mL>
2

> <ALogP>
4.884

> <Active>
1

> <Molecular_Weight>
413.118

$$$$

Generated by Molecular Materials Informatics

 21 23  0  0  0  0  0  0  0  0999 V2000
    9.8274    5.3479    0.0000 C   0  0  0  0  0  0  0  0  0  0  0  0
    8.5285    4.5979    0.0000 C   0  0  0  0  0  0  0  0  0  0  0  0
    8.5285    3.0979    0.0000 C   0  0  0  0  0  0  0  0  0  0  0  0
    7.2294    2.3479    0.0000 C   0  0  0  0  0  0  0  0  0  0  0  0
    5.9303    3.0979    0.0000 C   0  0  0  0  0  0  0  0  0  0  0  0
    5.9303    4.5979    0.0000 C   0  0  0  0  0  0  0  0  0  0  0  0
    7.2294    5.3479    0.0000 C   0  0  0  0  0  0  0  0  0  0  0  0
    4.6314    2.3479    0.0000 S   0  0  0  0  0  0  0  0  0  0  0  0
    3.8814    3.6470    0.0000 O   0  0  0  0  0  0  0  0  0  0  0  0
    5.3814    1.0490    0.0000 O   0  0  0  0  0  0  0  0  0  0  0  0
    3.3323    1.5979    0.0000 N   0  0  0  0  0  0  0  0  0  0  0  0
    3.3323    0.0979    0.0000 C   0  0  0  0  0  0  0  0  0  0  0  0
    2.0332   -0.6521    0.0000 C   0  0  0  0  0  0  0  0  0  0  0  0
    0.7342    0.0979    0.0000 C   0  0  0  0  0  0  0  0  0  0  0  0
   -0.6924   -0.3656    0.0000 C   0  0  0  0  0  0  0  0  0  0  0  0
   -1.5740    0.8479    0.0000 C   0  0  0  0  0  0  0  0  0  0  0  0
   -3.0740    0.8479    0.0000 Br  0  0  0  0  0  0  0  0  0  0  0  0
   -0.6924    2.0615    0.0000 S   0  0  0  0  0  0  0  0  0  0  0  0
    0.7342    1.5979    0.0000 C   0  0  0  0  0  0  0  0  0  0  0  0
    2.0332    2.3479    0.0000 B   0  0  0  0  0  0  0  0  0  0  0  0
    2.0332    3.8479    0.0000 O   0  0  0  0  0  0  0  0  0  0  0  0
  1  2  1  0  0  0  0
  2  3  2  0  0  0  0
  3  4  1  0  0  0  0
  4  5  2  0  0  0  0
  5  6  1  0  0  0  0
  6  7  2  0  0  0  0
  2  7  1  0  0  0  0
  5  8  1  0  0  0  0
  8  9  2  0  0  0  0
  8 10  2  0  0  0  0
  8 11  1  0  0  0  0
 11 12  1  0  0  0  0
 12 13  2  0  0  0  0
 13 14  1  0  0  0  0
 14 15  1  0  0  0  0
 15 16  2  0  0  0  0
 16 17  1  0  0  0  0
 16 18  1  0  0  0  0
 18 19  1  0  0  0  0
 14 19  2  0  0  0  0
 19 20  1  0  0  0  0
 11 20  1  0  0  0  0
 20 21  1  0  0  0  0
M  END
> <Molecule Name>
CHEMBL368581

> <IUPAC>
6-bromo-2-(4-methylbenzenesulfonyl)-1H,2H-thieno[2,3-c][1,2]azaborinin-1-ol

> <Collections>
TrainingSet_Kleb_p_ALPerryman_JSF

> <ChEMBL_Data_Neisseria_g: Qualifier_for_MIC_Ng>
>

> <ChEMBL_Data_Neisseria_g: ASSAY_CHEMBLID>
CHEMBL753615

> <ChEMBL_Data_Neisseria_g: DESCRIPTION_of_Assay_Ng>
Minimum inhibitory concentration of compound against Neisseria gonorrhoeae AS 7720

> <ChEMBL_Data_Neisseria_g: PUBMED_ID>
6379179

> <ChEMBL_Data_Neisseria_g: YEAR>
1984

> <ChEMBL_Data_Neisseria_g: JOURNAL>
J. Med. Chem.

> <ChEMBL_Data_Neisseria_g: VOLUME>
27

> <ChEMBL_Data_Neisseria_g: FIRST_PAGE>
947

> <ChEMBL_Data_Neisseria_g: MIC_vs_Neisseria_microg_per_mL>
8

> <ALogP>
3.499

> <Active>
0

> <Molecular_Weight>
384.076

$$$$

Generated by Molecular Materials Informatics

 39 44  0  0  0  0  0  0  0  0999 V2000
   -1.2855   -4.6021    0.0000 C   0  0  0  0  0  0  0  0  0  0  0  0
   -0.1711   -3.5981    0.0000 N   0  0  0  0  0  0  0  0  0  0  0  0
    1.2556   -4.0612    0.0000 C   0  0  0  0  0  0  0  0  0  0  0  0
    1.5680   -5.5283    0.0000 C   0  0  0  0  0  0  0  0  0  0  0  0
    2.9947   -5.9914    0.0000 C   0  0  0  0  0  0  0  0  0  0  0  0
    3.3069   -7.4585    0.0000 O   0  0  0  0  0  0  0  0  0  0  0  0
    4.1091   -4.9874    0.0000 C   0  0  0  0  0  0  0  0  0  0  0  0
    5.5359   -5.4505    0.0000 C   0  0  0  0  0  0  0  0  0  0  0  0
    5.8480   -6.9176    0.0000 O   0  0  0  0  0  0  0  0  0  0  0  0
    6.6502   -4.4465    0.0000 C   0  0  0  0  0  0  0  0  0  0  0  0
    6.3380   -2.9794    0.0000 C   0  0  0  0  0  0  0  0  0  0  0  0
    7.6368   -2.2290    0.0000 O   0  0  0  0  0  0  0  0  0  0  0  0
    8.7519   -3.2323    0.0000 C   0  0  0  0  0  0  0  0  0  0  0  0
    9.2150   -1.8056    0.0000 C   0  0  0  0  0  0  0  0  0  0  0  0
   10.6821   -1.4932    0.0000 C   0  0  0  0  0  0  0  0  0  0  0  0
   11.1452   -0.0665    0.0000 O   0  0  0  0  0  0  0  0  0  0  0  0
   11.6861   -2.6078    0.0000 C   0  0  0  0  0  0  0  0  0  0  0  0
   13.1532   -2.2954    0.0000 C   0  0  0  0  0  0  0  0  0  0  0  0
   14.1572   -3.4098    0.0000 C   0  0  0  0  0  0  0  0  0  0  0  0
   15.6244   -3.0976    0.0000 C   0  0  0  0  0  0  0  0  0  0  0  0
   16.6285   -4.2120    0.0000 C   0  0  0  0  0  0  0  0  0  0  0  0
   16.1654   -5.6387    0.0000 O   0  0  0  0  0  0  0  0  0  0  0  0
   14.6981   -5.9511    0.0000 C   0  0  0  0  0  0  0  0  0  0  0  0
   14.2350   -7.3778    0.0000 O   0  0  0  0  0  0  0  0  0  0  0  0
   13.6941   -4.8365    0.0000 C   0  0  0  0  0  0  0  0  0  0  0  0
   12.2270   -5.1489    0.0000 C   0  0  0  0  0  0  0  0  0  0  0  0
   11.7639   -6.5756    0.0000 O   0  0  0  0  0  0  0  0  0  0  0  0
   11.2230   -4.0345    0.0000 C   0  0  0  0  0  0  0  0  0  0  0  0
    9.7559   -4.3467    0.0000 O   0  0  0  0  0  0  0  0  0  0  0  0
   18.0956   -3.8998    0.0000 C   0  0  0  0  0  0  0  0  0  0  0  0
   18.5586   -2.4730    0.0000 O   0  0  0  0  0  0  0  0  0  0  0  0
   19.0996   -5.0141    0.0000 O   0  0  0  0  0  0  0  0  0  0  0  0
   20.5667   -4.7018    0.0000 C   0  0  0  0  0  0  0  0  0  0  0  0
    8.1420   -4.6029    0.0000 C   0  0  0  0  0  0  0  0  0  0  0  0
    4.9113   -2.5163    0.0000 C   0  0  0  0  0  0  0  0  0  0  0  0
    4.5989   -1.0490    0.0000 O   0  0  0  0  0  0  0  0  0  0  0  0
    3.7968   -3.5203    0.0000 C   0  0  0  0  0  0  0  0  0  0  0  0
    2.3700   -3.0572    0.0000 C   0  0  0  0  0  0  0  0  0  0  0  0
    2.0578   -1.5899    0.0000 O   0  0  0  0  0  0  0  0  0  0  0  0
  1  2  1  0  0  0  0
  2  3  1  0  0  0  0
  3  4  2  0  0  0  0
  4  5  1  0  0  0  0
  5  6  1  0  0  0  0
  5  7  2  0  0  0  0
  7  8  1  0  0  0  0
  8  9  2  0  0  0  0
  8 10  1  0  0  0  0
 10 11  2  0  0  0  0
 11 12  1  0  0  0  0
 12 13  1  0  0  0  0
 13 14  1  0  0  0  0
 14 15  1  0  0  0  0
 15 16  1  0  0  0  0
 15 17  1  0  0  0  0
 17 18  2  0  0  0  0
 18 19  1  0  0  0  0
 19 20  1  0  0  0  0
 20 21  2  0  0  0  0
 21 22  1  0  0  0  0
 22 23  1  0  0  0  0
 23 24  2  0  0  0  0
 23 25  1  0  0  0  0
 19 25  2  0  0  0  0
 25 26  1  0  0  0  0
 26 27  1  0  0  0  0
 26 28  2  0  0  0  0
 17 28  1  0  0  0  0
 28 29  1  0  0  0  0
 13 29  1  0  0  0  0
 21 30  1  0  0  0  0
 30 31  2  0  0  0  0
 30 32  1  0  0  0  0
 32 33  1  0  0  0  0
 13 34  1  0  0  0  0
 10 34  1  0  0  0  0
 11 35  1  0  0  0  0
 35 36  2  0  0  0  0
 35 37  1  0  0  0  0
  7 37  1  0  0  0  0
 37 38  2  0  0  0  0
  3 38  1  0  0  0  0
 38 39  1  0  0  0  0
M  END
> <Molecule Name>
CHEMBL368484

> <IUPAC>
methyl 4',5,8,10'-tetrahydroxy-7-(methylamino)-4,9,9'-trioxo-4,4',9,9'-tetrahydro-3H,3'H-spiro[naphtho[2,3-b]furan-2,2'-pyrano[3,2-g]isochromene]-7'-carboxylate

> <Collections>
Set2_NotListedAsBetaLactamResistant (mostly)

> <ChEMBL_Data_Neisseria_g: NUM_RO5_VIOLATIONS>
2

> <ChEMBL_Data_Neisseria_g: Qualifier_for_MIC_Ng>
=

> <ChEMBL_Data_Neisseria_g: ASSAY_CHEMBLID>
CHEMBL753613

> <ChEMBL_Data_Neisseria_g: DESCRIPTION_of_Assay_Ng>
In vitro antimicrobial activity against Neisseria gonorrhoeae L997

> <ChEMBL_Data_Neisseria_g: PUBMED_ID>
9083486

> <ChEMBL_Data_Neisseria_g: YEAR>
1997

> <ChEMBL_Data_Neisseria_g: JOURNAL>
J. Med. Chem.

> <ChEMBL_Data_Neisseria_g: VOLUME>
40

> <ChEMBL_Data_Neisseria_g: FIRST_PAGE>
967

> <ChEMBL_Data_Neisseria_g: MIC_vs_Neisseria_microg_per_mL>
0.06

> <ALogP>
1.242

> <Active>
1

> <Molecular_Weight>
537.429

$$$$

Generated by Molecular Materials Informatics

 21 23  0  0  0  0  0  0  0  0999 V2000
    4.9237    5.3479    0.0000 C   0  0  0  0  0  0  0  0  0  0  0  0
    6.2226    4.5979    0.0000 C   0  0  0  0  0  0  0  0  0  0  0  0
    7.5217    5.3479    0.0000 C   0  0  0  0  0  0  0  0  0  0  0  0
    8.8208    4.5979    0.0000 C   0  0  0  0  0  0  0  0  0  0  0  0
    8.8208    3.0979    0.0000 C   0  0  0  0  0  0  0  0  0  0  0  0
    7.5217    2.3479    0.0000 C   0  0  0  0  0  0  0  0  0  0  0  0
    6.2226    3.0979    0.0000 C   0  0  0  0  0  0  0  0  0  0  0  0
    4.9237    2.3479    0.0000 S   0  0  0  0  0  0  0  0  0  0  0  0
    4.1737    3.6470    0.0000 O   0  0  0  0  0  0  0  0  0  0  0  0
    5.6737    1.0490    0.0000 O   0  0  0  0  0  0  0  0  0  0  0  0
    3.6246    1.5979    0.0000 N   0  0  0  0  0  0  0  0  0  0  0  0
    3.6246    0.0979    0.0000 N   0  0  0  0  0  0  0  0  0  0  0  0
    2.3255   -0.6521    0.0000 C   0  0  0  0  0  0  0  0  0  0  0  0
    1.0264    0.0979    0.0000 C   0  0  0  0  0  0  0  0  0  0  0  0
   -0.4001   -0.3656    0.0000 S   0  0  0  0  0  0  0  0  0  0  0  0
   -1.2818    0.8479    0.0000 C   0  0  0  0  0  0  0  0  0  0  0  0
   -2.7818    0.8479    0.0000 Br  0  0  0  0  0  0  0  0  0  0  0  0
   -0.4001    2.0615    0.0000 C   0  0  0  0  0  0  0  0  0  0  0  0
    1.0264    1.5979    0.0000 C   0  0  0  0  0  0  0  0  0  0  0  0
    2.3255    2.3479    0.0000 B   0  0  0  0  0  0  0  0  0  0  0  0
    2.3255    3.8479    0.0000 O   0  0  0  0  0  0  0  0  0  0  0  0
  1  2  1  0  0  0  0
  2  3  2  0  0  0  0
  3  4  1  0  0  0  0
  4  5  2  0  0  0  0
  5  6  1  0  0  0  0
  6  7  2  0  0  0  0
  2  7  1  0  0  0  0
  7  8  1  0  0  0  0
  8  9  2  0  0  0  0
  8 10  2  0  0  0  0
  8 11  1  0  0  0  0
 11 12  1  0  0  0  0
 12 13  2  0  0  0  0
 13 14  1  0  0  0  0
 14 15  1  0  0  0  0
 15 16  1  0  0  0  0
 16 17  1  0  0  0  0
 16 18  2  0  0  0  0
 18 19  1  0  0  0  0
 14 19  2  0  0  0  0
 19 20  1  0  0  0  0
 11 20  1  0  0  0  0
 20 21  1  0  0  0  0
M  END
> <Molecule Name>
CHEMBL368419

> <IUPAC>
6-bromo-2-(2-methylbenzenesulfonyl)-1H,2H-thieno[3,2-d][1,2,3]diazaborinin-1-ol

> <Collections>
TrainingSet_Kleb_p_ALPerryman_JSF

> <ChEMBL_Data_Neisseria_g: Qualifier_for_MIC_Ng>
=

> <ChEMBL_Data_Neisseria_g: ASSAY_CHEMBLID>
CHEMBL753615

> <ChEMBL_Data_Neisseria_g: DESCRIPTION_of_Assay_Ng>
Minimum inhibitory concentration of compound against Neisseria gonorrhoeae AS 7720

> <ChEMBL_Data_Neisseria_g: PUBMED_ID>
6379179

> <ChEMBL_Data_Neisseria_g: YEAR>
1984

> <ChEMBL_Data_Neisseria_g: JOURNAL>
J. Med. Chem.

> <ChEMBL_Data_Neisseria_g: VOLUME>
27

> <ChEMBL_Data_Neisseria_g: FIRST_PAGE>
947

> <ChEMBL_Data_Neisseria_g: MIC_vs_Neisseria_microg_per_mL>
0.5

> <ALogP>
3.911

> <Active>
1

> <Molecular_Weight>
385.064

$$$$

Generated by Molecular Materials Informatics

 22 24  0  0  0  0  0  0  0  0999 V2000
   -2.9226   -2.9999    0.0000 C   0  0  0  0  0  0  0  0  0  0  0  0
   -1.6236   -2.2499    0.0000 C   0  0  0  0  0  0  0  0  0  0  0  0
   -1.6236   -0.7500    0.0000 C   0  0  0  0  0  0  0  0  0  0  0  0
   -0.3247    0.0000    0.0000 C   0  0  0  0  0  0  0  0  0  0  0  0
    0.9743   -0.7500    0.0000 C   0  0  0  0  0  0  0  0  0  0  0  0
    2.2734    0.0000    0.0000 B   0  0  0  0  0  0  0  0  0  0  0  0
    2.2734    1.5000    0.0000 O   0  0  0  0  0  0  0  0  0  0  0  0
    3.5724   -0.7500    0.0000 N   0  0  0  0  0  0  0  0  0  0  0  0
    3.5724   -2.2499    0.0000 N   0  0  0  0  0  0  0  0  0  0  0  0
    2.2734   -2.9999    0.0000 C   0  0  0  0  0  0  0  0  0  0  0  0
    0.9743   -2.2499    0.0000 C   0  0  0  0  0  0  0  0  0  0  0  0
   -0.3247   -2.9999    0.0000 C   0  0  0  0  0  0  0  0  0  0  0  0
    4.8713    0.0000    0.0000 S   0  0  0  0  0  0  0  0  0  0  0  0
    5.6213   -1.2991    0.0000 O   0  0  0  0  0  0  0  0  0  0  0  0
    4.1213    1.2991    0.0000 O   0  0  0  0  0  0  0  0  0  0  0  0
    6.1704    0.7500    0.0000 C   0  0  0  0  0  0  0  0  0  0  0  0
    6.1704    2.2499    0.0000 C   0  0  0  0  0  0  0  0  0  0  0  0
    7.4694    2.9999    0.0000 C   0  0  0  0  0  0  0  0  0  0  0  0
    8.7683    2.2499    0.0000 C   0  0  0  0  0  0  0  0  0  0  0  0
   10.0673    2.9999    0.0000 N   0  0  0  0  0  0  0  0  0  0  0  0
    8.7683    0.7500    0.0000 C   0  0  0  0  0  0  0  0  0  0  0  0
    7.4694    0.0000    0.0000 C   0  0  0  0  0  0  0  0  0  0  0  0
  1  2  1  0  0  0  0
  2  3  2  0  0  0  0
  3  4  1  0  0  0  0
  4  5  2  0  0  0  0
  5  6  1  0  0  0  0
  6  7  1  0  0  0  0
  6  8  1  0  0  0  0
  8  9  1  0  0  0  0
  9 10  2  0  0  0  0
 10 11  1  0  0  0  0
  5 11  1  0  0  0  0
 11 12  2  0  0  0  0
  2 12  1  0  0  0  0
  8 13  1  0  0  0  0
 13 14  2  0  0  0  0
 13 15  2  0  0  0  0
 13 16  1  0  0  0  0
 16 17  2  0  0  0  0
 17 18  1  0  0  0  0
 18 19  2  0  0  0  0
 19 20  1  0  0  0  0
 19 21  1  0  0  0  0
 21 22  2  0  0  0  0
 16 22  1  0  0  0  0
M  END
> <Molecule Name>
CHEMBL368335

> <IUPAC>
2-(4-aminobenzenesulfonyl)-6-methyl-1,2-dihydro-2,3,1-benzodiazaborinin-1-ol

> <Collections>
TrainingSet_Kleb_p_ALPerryman_JSF

> <ChEMBL_Data_Neisseria_g: Qualifier_for_MIC_Ng>
=

> <ChEMBL_Data_Neisseria_g: ASSAY_CHEMBLID>
CHEMBL858169

> <ChEMBL_Data_Neisseria_g: DESCRIPTION_of_Assay_Ng>
Minimum inhibitory concentration of compound against Neisseria gonorrhoeae W2

> <ChEMBL_Data_Neisseria_g: PUBMED_ID>
6379179

> <ChEMBL_Data_Neisseria_g: YEAR>
1984

> <ChEMBL_Data_Neisseria_g: JOURNAL>
J. Med. Chem.

> <ChEMBL_Data_Neisseria_g: VOLUME>
27

> <ChEMBL_Data_Neisseria_g: FIRST_PAGE>
947

> <ChEMBL_Data_Neisseria_g: MIC_vs_Neisseria_microg_per_mL>
8

> <ALogP>
2.643

> <Active>
1

> <Molecular_Weight>
315.155

$$$$

Generated by Molecular Materials Informatics

 22 24  0  0  0  0  0  0  0  0999 V2000
    9.8274    5.3479    0.0000 C   0  0  0  0  0  0  0  0  0  0  0  0
    8.5285    4.5979    0.0000 C   0  0  0  0  0  0  0  0  0  0  0  0
    8.5285    3.0979    0.0000 C   0  0  0  0  0  0  0  0  0  0  0  0
    7.2294    2.3479    0.0000 C   0  0  0  0  0  0  0  0  0  0  0  0
    5.9303    3.0979    0.0000 C   0  0  0  0  0  0  0  0  0  0  0  0
    5.9303    4.5979    0.0000 C   0  0  0  0  0  0  0  0  0  0  0  0
    4.6314    5.3479    0.0000 Cl  0  0  0  0  0  0  0  0  0  0  0  0
    7.2294    5.3479    0.0000 C   0  0  0  0  0  0  0  0  0  0  0  0
    4.6314    2.3479    0.0000 S   0  0  0  0  0  0  0  0  0  0  0  0
    3.8814    3.6470    0.0000 O   0  0  0  0  0  0  0  0  0  0  0  0
    5.3814    1.0490    0.0000 O   0  0  0  0  0  0  0  0  0  0  0  0
    3.3323    1.5979    0.0000 N   0  0  0  0  0  0  0  0  0  0  0  0
    3.3323    0.0979    0.0000 N   0  0  0  0  0  0  0  0  0  0  0  0
    2.0332   -0.6521    0.0000 C   0  0  0  0  0  0  0  0  0  0  0  0
    0.7342    0.0979    0.0000 C   0  0  0  0  0  0  0  0  0  0  0  0
   -0.6924   -0.3656    0.0000 S   0  0  0  0  0  0  0  0  0  0  0  0
   -1.5740    0.8479    0.0000 C   0  0  0  0  0  0  0  0  0  0  0  0
   -3.0740    0.8479    0.0000 Br  0  0  0  0  0  0  0  0  0  0  0  0
   -0.6924    2.0615    0.0000 C   0  0  0  0  0  0  0  0  0  0  0  0
    0.7342    1.5979    0.0000 C   0  0  0  0  0  0  0  0  0  0  0  0
    2.0332    2.3479    0.0000 B   0  0  0  0  0  0  0  0  0  0  0  0
    2.0332    3.8479    0.0000 O   0  0  0  0  0  0  0  0  0  0  0  0
  1  2  1  0  0  0  0
  2  3  2  0  0  0  0
  3  4  1  0  0  0  0
  4  5  2  0  0  0  0
  5  6  1  0  0  0  0
  6  7  1  0  0  0  0
  6  8  2  0  0  0  0
  2  8  1  0  0  0  0
  5  9  1  0  0  0  0
  9 10  2  0  0  0  0
  9 11  2  0  0  0  0
  9 12  1  0  0  0  0
 12 13  1  0  0  0  0
 13 14  2  0  0  0  0
 14 15  1  0  0  0  0
 15 16  1  0  0  0  0
 16 17  1  0  0  0  0
 17 18  1  0  0  0  0
 17 19  2  0  0  0  0
 19 20  1  0  0  0  0
 15 20  2  0  0  0  0
 20 21  1  0  0  0  0
 12 21  1  0  0  0  0
 21 22  1  0  0  0  0
M  END
> <Molecule Name>
CHEMBL367950

> <IUPAC>
6-bromo-2-(2-chloro-4-methylbenzenesulfonyl)-1H,2H-thieno[3,2-d][1,2,3]diazaborinin-1-ol

> <Collections>
TrainingSet_Kleb_p_ALPerryman_JSF

> <ChEMBL_Data_Neisseria_g: Qualifier_for_MIC_Ng>
=

> <ChEMBL_Data_Neisseria_g: ASSAY_CHEMBLID>
CHEMBL858169

> <ChEMBL_Data_Neisseria_g: DESCRIPTION_of_Assay_Ng>
Minimum inhibitory concentration of compound against Neisseria gonorrhoeae W2

> <ChEMBL_Data_Neisseria_g: PUBMED_ID>
6379179

> <ChEMBL_Data_Neisseria_g: YEAR>
1984

> <ChEMBL_Data_Neisseria_g: JOURNAL>
J. Med. Chem.

> <ChEMBL_Data_Neisseria_g: VOLUME>
27

> <ChEMBL_Data_Neisseria_g: FIRST_PAGE>
947

> <ChEMBL_Data_Neisseria_g: MIC_vs_Neisseria_microg_per_mL>
1

> <ALogP>
4.576

> <Active>
1

> <Molecular_Weight>
419.509

$$$$

Generated by Molecular Materials Informatics

 17 18  0  0  0  0  0  0  0  0999 V2000
   -2.1759   -4.0687    0.0000 C   0  0  0  0  0  0  0  0  0  0  0  0
   -2.1759   -2.5687    0.0000 N   0  0  0  0  0  0  0  0  0  0  0  0
   -3.4747   -1.8187    0.0000 C   0  0  0  0  0  0  0  0  0  0  0  0
   -0.8768   -1.8187    0.0000 S   0  0  0  0  0  0  0  0  0  0  0  0
   -0.1268   -3.1178    0.0000 O   0  0  0  0  0  0  0  0  0  0  0  0
   -1.6268   -0.5197    0.0000 O   0  0  0  0  0  0  0  0  0  0  0  0
    0.4222   -1.0688    0.0000 N   0  0  0  0  0  0  0  0  0  0  0  0
    0.4222    0.4312    0.0000 N   0  0  0  0  0  0  0  0  0  0  0  0
    1.7211    1.1812    0.0000 C   0  0  0  0  0  0  0  0  0  0  0  0
    3.0201    0.4312    0.0000 C   0  0  0  0  0  0  0  0  0  0  0  0
    4.3192    1.1812    0.0000 C   0  0  0  0  0  0  0  0  0  0  0  0
    5.6182    0.4312    0.0000 C   0  0  0  0  0  0  0  0  0  0  0  0
    5.6182   -1.0688    0.0000 C   0  0  0  0  0  0  0  0  0  0  0  0
    4.3192   -1.8187    0.0000 C   0  0  0  0  0  0  0  0  0  0  0  0
    3.0201   -1.0688    0.0000 C   0  0  0  0  0  0  0  0  0  0  0  0
    1.7211   -1.8187    0.0000 B   0  0  0  0  0  0  0  0  0  0  0  0
    1.7211   -3.3187    0.0000 O   0  0  0  0  0  0  0  0  0  0  0  0
  1  2  1  0  0  0  0
  2  3  1  0  0  0  0
  2  4  1  0  0  0  0
  4  5  2  0  0  0  0
  4  6  2  0  0  0  0
  4  7  1  0  0  0  0
  7  8  1  0  0  0  0
  8  9  2  0  0  0  0
  9 10  1  0  0  0  0
 10 11  2  0  0  0  0
 11 12  1  0  0  0  0
 12 13  2  0  0  0  0
 13 14  1  0  0  0  0
 14 15  2  0  0  0  0
 10 15  1  0  0  0  0
 15 16  1  0  0  0  0
  7 16  1  0  0  0  0
 16 17  1  0  0  0  0
M  END
> <Molecule Name>
CHEMBL367554

> <IUPAC>
1-hydroxy-N,N-dimethyl-1,2-dihydro-2,3,1-benzodiazaborinine-2-sulfonamide

> <Collections>
TrainingSet_Kleb_p_ALPerryman_JSF

> <ChEMBL_Data_Neisseria_g: Qualifier_for_MIC_Ng>
>

> <ChEMBL_Data_Neisseria_g: ASSAY_CHEMBLID>
CHEMBL753615

> <ChEMBL_Data_Neisseria_g: DESCRIPTION_of_Assay_Ng>
Minimum inhibitory concentration of compound against Neisseria gonorrhoeae AS 7720

> <ChEMBL_Data_Neisseria_g: PUBMED_ID>
6379179

> <ChEMBL_Data_Neisseria_g: YEAR>
1984

> <ChEMBL_Data_Neisseria_g: JOURNAL>
J. Med. Chem.

> <ChEMBL_Data_Neisseria_g: VOLUME>
27

> <ChEMBL_Data_Neisseria_g: FIRST_PAGE>
947

> <ChEMBL_Data_Neisseria_g: MIC_vs_Neisseria_microg_per_mL>
8

> <ALogP>
0.918

> <Active>
0

> <Molecular_Weight>
253.086

$$$$

Generated by Molecular Materials Informatics

 22 24  0  0  0  0  0  0  0  0999 V2000
   -5.7805   -4.6499    0.0000 C   0  0  0  0  0  0  0  0  0  0  0  0
   -4.4815   -3.8999    0.0000 C   0  0  0  0  0  0  0  0  0  0  0  0
   -4.4815   -2.4000    0.0000 C   0  0  0  0  0  0  0  0  0  0  0  0
   -3.1824   -1.6500    0.0000 C   0  0  0  0  0  0  0  0  0  0  0  0
   -1.8836   -2.4000    0.0000 C   0  0  0  0  0  0  0  0  0  0  0  0
   -1.8836   -3.8999    0.0000 C   0  0  0  0  0  0  0  0  0  0  0  0
   -3.1824   -4.6499    0.0000 C   0  0  0  0  0  0  0  0  0  0  0  0
   -0.5845   -1.6500    0.0000 S   0  0  0  0  0  0  0  0  0  0  0  0
    0.1655   -2.9491    0.0000 O   0  0  0  0  0  0  0  0  0  0  0  0
   -1.3345   -0.3509    0.0000 O   0  0  0  0  0  0  0  0  0  0  0  0
    0.7145   -0.9000    0.0000 N   0  0  0  0  0  0  0  0  0  0  0  0
    0.7145    0.5999    0.0000 N   0  0  0  0  0  0  0  0  0  0  0  0
    2.0134    1.3499    0.0000 C   0  0  0  0  0  0  0  0  0  0  0  0
    3.3125    0.5999    0.0000 C   0  0  0  0  0  0  0  0  0  0  0  0
    4.6115    1.3499    0.0000 C   0  0  0  0  0  0  0  0  0  0  0  0
    5.9106    0.5999    0.0000 C   0  0  0  0  0  0  0  0  0  0  0  0
    5.9106   -0.9000    0.0000 C   0  0  0  0  0  0  0  0  0  0  0  0
    7.2094   -1.6500    0.0000 Cl  0  0  0  0  0  0  0  0  0  0  0  0
    4.6115   -1.6500    0.0000 C   0  0  0  0  0  0  0  0  0  0  0  0
    3.3125   -0.9000    0.0000 C   0  0  0  0  0  0  0  0  0  0  0  0
    2.0134   -1.6500    0.0000 B   0  0  0  0  0  0  0  0  0  0  0  0
    2.0134   -3.1500    0.0000 O   0  0  0  0  0  0  0  0  0  0  0  0
  1  2  1  0  0  0  0
  2  3  2  0  0  0  0
  3  4  1  0  0  0  0
  4  5  2  0  0  0  0
  5  6  1  0  0  0  0
  6  7  2  0  0  0  0
  2  7  1  0  0  0  0
  5  8  1  0  0  0  0
  8  9  2  0  0  0  0
  8 10  2  0  0  0  0
  8 11  1  0  0  0  0
 11 12  1  0  0  0  0
 12 13  2  0  0  0  0
 13 14  1  0  0  0  0
 14 15  2  0  0  0  0
 15 16  1  0  0  0  0
 16 17  2  0  0  0  0
 17 18  1  0  0  0  0
 17 19  1  0  0  0  0
 19 20  2  0  0  0  0
 14 20  1  0  0  0  0
 20 21  1  0  0  0  0
 11 21  1  0  0  0  0
 21 22  1  0  0  0  0
M  END
> <Molecule Name>
CHEMBL367477

> <IUPAC>
7-chloro-2-(4-methylbenzenesulfonyl)-1,2-dihydro-2,3,1-benzodiazaborinin-1-ol

> <Collections>
TrainingSet_Kleb_p_ALPerryman_JSF

> <ChEMBL_Data_Neisseria_g: Qualifier_for_MIC_Ng>
>

> <ChEMBL_Data_Neisseria_g: ASSAY_CHEMBLID>
CHEMBL858169

> <ChEMBL_Data_Neisseria_g: DESCRIPTION_of_Assay_Ng>
Minimum inhibitory concentration of compound against Neisseria gonorrhoeae W2

> <ChEMBL_Data_Neisseria_g: PUBMED_ID>
6379179

> <ChEMBL_Data_Neisseria_g: YEAR>
1984

> <ChEMBL_Data_Neisseria_g: JOURNAL>
J. Med. Chem.

> <ChEMBL_Data_Neisseria_g: VOLUME>
27

> <ChEMBL_Data_Neisseria_g: FIRST_PAGE>
947

> <ChEMBL_Data_Neisseria_g: MIC_vs_Neisseria_microg_per_mL>
8

> <ALogP>
4.054

> <Active>
0

> <Molecular_Weight>
334.586

$$$$

Generated by Molecular Materials Informatics

 26 28  0  0  0  0  0  0  0  0999 V2000
   -6.7873   -6.3936    0.0000 C   0  0  0  0  0  0  0  0  0  0  0  0
   -5.4883   -5.6436    0.0000 C   0  0  0  0  0  0  0  0  0  0  0  0
   -4.1892   -6.3936    0.0000 O   0  0  0  0  0  0  0  0  0  0  0  0
   -5.4883   -4.1437    0.0000 N   0  0  0  0  0  0  0  0  0  0  0  0
   -4.1892   -3.3937    0.0000 C   0  0  0  0  0  0  0  0  0  0  0  0
   -4.1892   -1.8938    0.0000 C   0  0  0  0  0  0  0  0  0  0  0  0
   -2.8902   -1.1438    0.0000 C   0  0  0  0  0  0  0  0  0  0  0  0
   -1.5913   -1.8938    0.0000 C   0  0  0  0  0  0  0  0  0  0  0  0
   -1.5913   -3.3937    0.0000 C   0  0  0  0  0  0  0  0  0  0  0  0
   -0.2922   -4.1437    0.0000 Cl  0  0  0  0  0  0  0  0  0  0  0  0
   -2.8902   -4.1437    0.0000 C   0  0  0  0  0  0  0  0  0  0  0  0
   -0.2922   -1.1438    0.0000 S   0  0  0  0  0  0  0  0  0  0  0  0
    0.4577   -2.4428    0.0000 O   0  0  0  0  0  0  0  0  0  0  0  0
   -1.0422    0.1553    0.0000 O   0  0  0  0  0  0  0  0  0  0  0  0
    1.0068   -0.3938    0.0000 N   0  0  0  0  0  0  0  0  0  0  0  0
    1.0068    1.1061    0.0000 N   0  0  0  0  0  0  0  0  0  0  0  0
    2.3057    1.8561    0.0000 C   0  0  0  0  0  0  0  0  0  0  0  0
    3.6047    1.1061    0.0000 C   0  0  0  0  0  0  0  0  0  0  0  0
    4.9038    1.8561    0.0000 C   0  0  0  0  0  0  0  0  0  0  0  0
    6.2028    1.1061    0.0000 C   0  0  0  0  0  0  0  0  0  0  0  0
    7.5017    1.8561    0.0000 Br  0  0  0  0  0  0  0  0  0  0  0  0
    6.2028   -0.3938    0.0000 C   0  0  0  0  0  0  0  0  0  0  0  0
    4.9038   -1.1438    0.0000 C   0  0  0  0  0  0  0  0  0  0  0  0
    3.6047   -0.3938    0.0000 C   0  0  0  0  0  0  0  0  0  0  0  0
    2.3057   -1.1438    0.0000 B   0  0  0  0  0  0  0  0  0  0  0  0
    2.3057   -2.6437    0.0000 O   0  0  0  0  0  0  0  0  0  0  0  0
  1  2  1  0  0  0  0
  2  3  2  0  0  0  0
  2  4  1  0  0  0  0
  4  5  1  0  0  0  0
  5  6  2  0  0  0  0
  6  7  1  0  0  0  0
  7  8  2  0  0  0  0
  8  9  1  0  0  0  0
  9 10  1  0  0  0  0
  9 11  2  0  0  0  0
  5 11  1  0  0  0  0
  8 12  1  0  0  0  0
 12 13  2  0  0  0  0
 12 14  2  0  0  0  0
 12 15  1  0  0  0  0
 15 16  1  0  0  0  0
 16 17  2  0  0  0  0
 17 18  1  0  0  0  0
 18 19  2  0  0  0  0
 19 20  1  0  0  0  0
 20 21  1  0  0  0  0
 20 22  2  0  0  0  0
 22 23  1  0  0  0  0
 23 24  2  0  0  0  0
 18 24  1  0  0  0  0
 24 25  1  0  0  0  0
 15 25  1  0  0  0  0
 25 26  1  0  0  0  0
M  END
> <Molecule Name>
CHEMBL367292

> <IUPAC>
N-{4-[(6-bromo-1-hydroxy-1,2-dihydro-2,3,1-benzodiazaborinin-2-yl)sulfonyl]-3-chlorophenyl}acetamide

> <Collections>
TrainingSet_Kleb_p_ALPerryman_JSF

> <ChEMBL_Data_Neisseria_g: Qualifier_for_MIC_Ng>
=

> <ChEMBL_Data_Neisseria_g: ASSAY_CHEMBLID>
CHEMBL858169

> <ChEMBL_Data_Neisseria_g: DESCRIPTION_of_Assay_Ng>
Minimum inhibitory concentration of compound against Neisseria gonorrhoeae W2

> <ChEMBL_Data_Neisseria_g: PUBMED_ID>
6379179

> <ChEMBL_Data_Neisseria_g: YEAR>
1984

> <ChEMBL_Data_Neisseria_g: JOURNAL>
J. Med. Chem.

> <ChEMBL_Data_Neisseria_g: VOLUME>
27

> <ChEMBL_Data_Neisseria_g: FIRST_PAGE>
947

> <ChEMBL_Data_Neisseria_g: MIC_vs_Neisseria_microg_per_mL>
2

> <ALogP>
3.437

> <Active>
1

> <Molecular_Weight>
456.506

$$$$

Generated by Molecular Materials Informatics

 22 24  0  0  0  0  0  0  0  0999 V2000
   -5.4883   -4.9874    0.0000 C   0  0  0  0  0  0  0  0  0  0  0  0
   -4.1892   -4.2374    0.0000 C   0  0  0  0  0  0  0  0  0  0  0  0
   -4.1892   -2.7375    0.0000 C   0  0  0  0  0  0  0  0  0  0  0  0
   -2.8902   -1.9875    0.0000 C   0  0  0  0  0  0  0  0  0  0  0  0
   -1.5913   -2.7375    0.0000 C   0  0  0  0  0  0  0  0  0  0  0  0
   -1.5913   -4.2374    0.0000 C   0  0  0  0  0  0  0  0  0  0  0  0
   -2.8902   -4.9874    0.0000 C   0  0  0  0  0  0  0  0  0  0  0  0
   -0.2923   -1.9875    0.0000 S   0  0  0  0  0  0  0  0  0  0  0  0
    0.4577   -3.2865    0.0000 O   0  0  0  0  0  0  0  0  0  0  0  0
   -1.0423   -0.6884    0.0000 O   0  0  0  0  0  0  0  0  0  0  0  0
    1.0068   -1.2375    0.0000 N   0  0  0  0  0  0  0  0  0  0  0  0
    1.0068    0.2625    0.0000 N   0  0  0  0  0  0  0  0  0  0  0  0
    2.3056    1.0124    0.0000 C   0  0  0  0  0  0  0  0  0  0  0  0
    3.6047    0.2625    0.0000 C   0  0  0  0  0  0  0  0  0  0  0  0
    4.9037    1.0124    0.0000 C   0  0  0  0  0  0  0  0  0  0  0  0
    4.9037    2.5124    0.0000 F   0  0  0  0  0  0  0  0  0  0  0  0
    6.2028    0.2625    0.0000 C   0  0  0  0  0  0  0  0  0  0  0  0
    6.2028   -1.2375    0.0000 C   0  0  0  0  0  0  0  0  0  0  0  0
    4.9037   -1.9875    0.0000 C   0  0  0  0  0  0  0  0  0  0  0  0
    3.6047   -1.2375    0.0000 C   0  0  0  0  0  0  0  0  0  0  0  0
    2.3056   -1.9875    0.0000 B   0  0  0  0  0  0  0  0  0  0  0  0
    2.3056   -3.4874    0.0000 O   0  0  0  0  0  0  0  0  0  0  0  0
  1  2  1  0  0  0  0
  2  3  2  0  0  0  0
  3  4  1  0  0  0  0
  4  5  2  0  0  0  0
  5  6  1  0  0  0  0
  6  7  2  0  0  0  0
  2  7  1  0  0  0  0
  5  8  1  0  0  0  0
  8  9  2  0  0  0  0
  8 10  2  0  0  0  0
  8 11  1  0  0  0  0
 11 12  1  0  0  0  0
 12 13  2  0  0  0  0
 13 14  1  0  0  0  0
 14 15  2  0  0  0  0
 15 16  1  0  0  0  0
 15 17  1  0  0  0  0
 17 18  2  0  0  0  0
 18 19  1  0  0  0  0
 19 20  2  0  0  0  0
 14 20  1  0  0  0  0
 20 21  1  0  0  0  0
 11 21  1  0  0  0  0
 21 22  1  0  0  0  0
M  END
> <Molecule Name>
CHEMBL367210

> <IUPAC>
5-fluoro-2-(4-methylbenzenesulfonyl)-1,2-dihydro-2,3,1-benzodiazaborinin-1-ol

> <Collections>
TrainingSet_Kleb_p_ALPerryman_JSF

> <ChEMBL_Data_Neisseria_g: Qualifier_for_MIC_Ng>
=

> <ChEMBL_Data_Neisseria_g: ASSAY_CHEMBLID>
CHEMBL858169

> <ChEMBL_Data_Neisseria_g: DESCRIPTION_of_Assay_Ng>
Minimum inhibitory concentration of compound against Neisseria gonorrhoeae W2

> <ChEMBL_Data_Neisseria_g: PUBMED_ID>
6379179

> <ChEMBL_Data_Neisseria_g: YEAR>
1984

> <ChEMBL_Data_Neisseria_g: JOURNAL>
J. Med. Chem.

> <ChEMBL_Data_Neisseria_g: VOLUME>
27

> <ChEMBL_Data_Neisseria_g: FIRST_PAGE>
947

> <ChEMBL_Data_Neisseria_g: MIC_vs_Neisseria_microg_per_mL>
8

> <ALogP>
3.595

> <Active>
1

> <Molecular_Weight>
318.131

$$$$

Generated by Molecular Materials Informatics

 26 28  0  0  0  0  0  0  0  0999 V2000
   -6.7873   -6.3936    0.0000 C   0  0  0  0  0  0  0  0  0  0  0  0
   -5.4883   -5.6436    0.0000 C   0  0  0  0  0  0  0  0  0  0  0  0
   -4.1892   -6.3936    0.0000 O   0  0  0  0  0  0  0  0  0  0  0  0
   -5.4883   -4.1437    0.0000 N   0  0  0  0  0  0  0  0  0  0  0  0
   -4.1892   -3.3937    0.0000 C   0  0  0  0  0  0  0  0  0  0  0  0
   -4.1892   -1.8938    0.0000 C   0  0  0  0  0  0  0  0  0  0  0  0
   -2.8902   -1.1438    0.0000 C   0  0  0  0  0  0  0  0  0  0  0  0
   -1.5913   -1.8938    0.0000 C   0  0  0  0  0  0  0  0  0  0  0  0
   -1.5913   -3.3937    0.0000 C   0  0  0  0  0  0  0  0  0  0  0  0
   -0.2922   -4.1437    0.0000 Cl  0  0  0  0  0  0  0  0  0  0  0  0
   -2.8902   -4.1437    0.0000 C   0  0  0  0  0  0  0  0  0  0  0  0
   -0.2922   -1.1438    0.0000 S   0  0  0  0  0  0  0  0  0  0  0  0
    0.4577   -2.4428    0.0000 O   0  0  0  0  0  0  0  0  0  0  0  0
   -1.0422    0.1553    0.0000 O   0  0  0  0  0  0  0  0  0  0  0  0
    1.0068   -0.3938    0.0000 N   0  0  0  0  0  0  0  0  0  0  0  0
    1.0068    1.1061    0.0000 N   0  0  0  0  0  0  0  0  0  0  0  0
    2.3057    1.8561    0.0000 C   0  0  0  0  0  0  0  0  0  0  0  0
    3.6047    1.1061    0.0000 C   0  0  0  0  0  0  0  0  0  0  0  0
    4.9038    1.8561    0.0000 C   0  0  0  0  0  0  0  0  0  0  0  0
    6.2028    1.1061    0.0000 C   0  0  0  0  0  0  0  0  0  0  0  0
    7.5017    1.8561    0.0000 C   0  0  0  0  0  0  0  0  0  0  0  0
    6.2028   -0.3938    0.0000 C   0  0  0  0  0  0  0  0  0  0  0  0
    4.9038   -1.1438    0.0000 C   0  0  0  0  0  0  0  0  0  0  0  0
    3.6047   -0.3938    0.0000 C   0  0  0  0  0  0  0  0  0  0  0  0
    2.3057   -1.1438    0.0000 B   0  0  0  0  0  0  0  0  0  0  0  0
    2.3057   -2.6437    0.0000 O   0  0  0  0  0  0  0  0  0  0  0  0
  1  2  1  0  0  0  0
  2  3  2  0  0  0  0
  2  4  1  0  0  0  0
  4  5  1  0  0  0  0
  5  6  2  0  0  0  0
  6  7  1  0  0  0  0
  7  8  2  0  0  0  0
  8  9  1  0  0  0  0
  9 10  1  0  0  0  0
  9 11  2  0  0  0  0
  5 11  1  0  0  0  0
  8 12  1  0  0  0  0
 12 13  2  0  0  0  0
 12 14  2  0  0  0  0
 12 15  1  0  0  0  0
 15 16  1  0  0  0  0
 16 17  2  0  0  0  0
 17 18  1  0  0  0  0
 18 19  2  0  0  0  0
 19 20  1  0  0  0  0
 20 21  1  0  0  0  0
 20 22  2  0  0  0  0
 22 23  1  0  0  0  0
 23 24  2  0  0  0  0
 18 24  1  0  0  0  0
 24 25  1  0  0  0  0
 15 25  1  0  0  0  0
 25 26  1  0  0  0  0
M  END
> <Molecule Name>
CHEMBL367183

> <IUPAC>
N-{3-chloro-4-[(1-hydroxy-6-methyl-1,2-dihydro-2,3,1-benzodiazaborinin-2-yl)sulfonyl]phenyl}acetamide

> <Collections>
TrainingSet_Kleb_p_ALPerryman_JSF

> <ChEMBL_Data_Neisseria_g: Qualifier_for_MIC_Ng>
=

> <ChEMBL_Data_Neisseria_g: ASSAY_CHEMBLID>
CHEMBL858169

> <ChEMBL_Data_Neisseria_g: DESCRIPTION_of_Assay_Ng>
Minimum inhibitory concentration of compound against Neisseria gonorrhoeae W2

> <ChEMBL_Data_Neisseria_g: PUBMED_ID>
6379179

> <ChEMBL_Data_Neisseria_g: YEAR>
1984

> <ChEMBL_Data_Neisseria_g: JOURNAL>
J. Med. Chem.

> <ChEMBL_Data_Neisseria_g: VOLUME>
27

> <ChEMBL_Data_Neisseria_g: FIRST_PAGE>
947

> <ChEMBL_Data_Neisseria_g: MIC_vs_Neisseria_microg_per_mL>
1

> <ALogP>
3.175

> <Active>
1

> <Molecular_Weight>
391.637

$$$$

Generated by Molecular Materials Informatics

 22 24  0  0  0  0  0  0  0  0999 V2000
    9.8274    5.3479    0.0000 C   0  0  0  0  0  0  0  0  0  0  0  0
    8.5285    4.5979    0.0000 C   0  0  0  0  0  0  0  0  0  0  0  0
    8.5285    3.0979    0.0000 C   0  0  0  0  0  0  0  0  0  0  0  0
    7.2294    2.3479    0.0000 C   0  0  0  0  0  0  0  0  0  0  0  0
    5.9303    3.0979    0.0000 C   0  0  0  0  0  0  0  0  0  0  0  0
    5.9303    4.5979    0.0000 C   0  0  0  0  0  0  0  0  0  0  0  0
    4.6314    5.3479    0.0000 Cl  0  0  0  0  0  0  0  0  0  0  0  0
    7.2294    5.3479    0.0000 C   0  0  0  0  0  0  0  0  0  0  0  0
    4.6314    2.3479    0.0000 S   0  0  0  0  0  0  0  0  0  0  0  0
    3.8814    3.6470    0.0000 O   0  0  0  0  0  0  0  0  0  0  0  0
    5.3814    1.0490    0.0000 O   0  0  0  0  0  0  0  0  0  0  0  0
    3.3323    1.5979    0.0000 N   0  0  0  0  0  0  0  0  0  0  0  0
    3.3323    0.0979    0.0000 N   0  0  0  0  0  0  0  0  0  0  0  0
    2.0332   -0.6521    0.0000 C   0  0  0  0  0  0  0  0  0  0  0  0
    0.7342    0.0979    0.0000 C   0  0  0  0  0  0  0  0  0  0  0  0
   -0.6924   -0.3656    0.0000 S   0  0  0  0  0  0  0  0  0  0  0  0
   -1.5740    0.8479    0.0000 C   0  0  0  0  0  0  0  0  0  0  0  0
   -3.0740    0.8479    0.0000 C   0  0  0  0  0  0  0  0  0  0  0  0
   -0.6924    2.0615    0.0000 C   0  0  0  0  0  0  0  0  0  0  0  0
    0.7342    1.5979    0.0000 C   0  0  0  0  0  0  0  0  0  0  0  0
    2.0332    2.3479    0.0000 B   0  0  0  0  0  0  0  0  0  0  0  0
    2.0332    3.8479    0.0000 O   0  0  0  0  0  0  0  0  0  0  0  0
  1  2  1  0  0  0  0
  2  3  2  0  0  0  0
  3  4  1  0  0  0  0
  4  5  2  0  0  0  0
  5  6  1  0  0  0  0
  6  7  1  0  0  0  0
  6  8  2  0  0  0  0
  2  8  1  0  0  0  0
  5  9  1  0  0  0  0
  9 10  2  0  0  0  0
  9 11  2  0  0  0  0
  9 12  1  0  0  0  0
 12 13  1  0  0  0  0
 13 14  2  0  0  0  0
 14 15  1  0  0  0  0
 15 16  1  0  0  0  0
 16 17  1  0  0  0  0
 17 18  1  0  0  0  0
 17 19  2  0  0  0  0
 19 20  1  0  0  0  0
 15 20  2  0  0  0  0
 20 21  1  0  0  0  0
 12 21  1  0  0  0  0
 21 22  1  0  0  0  0
M  END
> <Molecule Name>
CHEMBL367177

> <IUPAC>
2-(2-chloro-4-methylbenzenesulfonyl)-6-methyl-1H,2H-thieno[3,2-d][1,2,3]diazaborinin-1-ol

> <Collections>
TrainingSet_Kleb_p_ALPerryman_JSF

> <ChEMBL_Data_Neisseria_g: Qualifier_for_MIC_Ng>
=

> <ChEMBL_Data_Neisseria_g: ASSAY_CHEMBLID>
CHEMBL858169

> <ChEMBL_Data_Neisseria_g: DESCRIPTION_of_Assay_Ng>
Minimum inhibitory concentration of compound against Neisseria gonorrhoeae W2

> <ChEMBL_Data_Neisseria_g: PUBMED_ID>
6379179

> <ChEMBL_Data_Neisseria_g: YEAR>
1984

> <ChEMBL_Data_Neisseria_g: JOURNAL>
J. Med. Chem.

> <ChEMBL_Data_Neisseria_g: VOLUME>
27

> <ChEMBL_Data_Neisseria_g: FIRST_PAGE>
947

> <ChEMBL_Data_Neisseria_g: MIC_vs_Neisseria_microg_per_mL>
1

> <ALogP>
4.153

> <Active>
1

> <Molecular_Weight>
354.64

$$$$

Generated by Molecular Materials Informatics

 22 24  0  0  0  0  0  0  0  0999 V2000
   -5.4883   -4.9874    0.0000 C   0  0  0  0  0  0  0  0  0  0  0  0
   -4.1892   -4.2374    0.0000 C   0  0  0  0  0  0  0  0  0  0  0  0
   -4.1892   -2.7375    0.0000 C   0  0  0  0  0  0  0  0  0  0  0  0
   -2.8902   -1.9875    0.0000 C   0  0  0  0  0  0  0  0  0  0  0  0
   -1.5913   -2.7375    0.0000 C   0  0  0  0  0  0  0  0  0  0  0  0
   -1.5913   -4.2374    0.0000 C   0  0  0  0  0  0  0  0  0  0  0  0
   -2.8902   -4.9874    0.0000 C   0  0  0  0  0  0  0  0  0  0  0  0
   -0.2923   -1.9875    0.0000 S   0  0  0  0  0  0  0  0  0  0  0  0
    0.4577   -3.2865    0.0000 O   0  0  0  0  0  0  0  0  0  0  0  0
   -1.0423   -0.6884    0.0000 O   0  0  0  0  0  0  0  0  0  0  0  0
    1.0068   -1.2375    0.0000 N   0  0  0  0  0  0  0  0  0  0  0  0
    1.0068    0.2625    0.0000 N   0  0  0  0  0  0  0  0  0  0  0  0
    2.3056    1.0124    0.0000 C   0  0  0  0  0  0  0  0  0  0  0  0
    3.6047    0.2625    0.0000 C   0  0  0  0  0  0  0  0  0  0  0  0
    4.9037    1.0124    0.0000 C   0  0  0  0  0  0  0  0  0  0  0  0
    4.9037    2.5124    0.0000 C   0  0  0  0  0  0  0  0  0  0  0  0
    6.2028    0.2625    0.0000 C   0  0  0  0  0  0  0  0  0  0  0  0
    6.2028   -1.2375    0.0000 C   0  0  0  0  0  0  0  0  0  0  0  0
    4.9037   -1.9875    0.0000 C   0  0  0  0  0  0  0  0  0  0  0  0
    3.6047   -1.2375    0.0000 C   0  0  0  0  0  0  0  0  0  0  0  0
    2.3056   -1.9875    0.0000 B   0  0  0  0  0  0  0  0  0  0  0  0
    2.3056   -3.4874    0.0000 O   0  0  0  0  0  0  0  0  0  0  0  0
  1  2  1  0  0  0  0
  2  3  2  0  0  0  0
  3  4  1  0  0  0  0
  4  5  2  0  0  0  0
  5  6  1  0  0  0  0
  6  7  2  0  0  0  0
  2  7  1  0  0  0  0
  5  8  1  0  0  0  0
  8  9  2  0  0  0  0
  8 10  2  0  0  0  0
  8 11  1  0  0  0  0
 11 12  1  0  0  0  0
 12 13  2  0  0  0  0
 13 14  1  0  0  0  0
 14 15  2  0  0  0  0
 15 16  1  0  0  0  0
 15 17  1  0  0  0  0
 17 18  2  0  0  0  0
 18 19  1  0  0  0  0
 19 20  2  0  0  0  0
 14 20  1  0  0  0  0
 20 21  1  0  0  0  0
 11 21  1  0  0  0  0
 21 22  1  0  0  0  0
M  END
> <Molecule Name>
CHEMBL367054

> <IUPAC>
5-methyl-2-(4-methylbenzenesulfonyl)-1,2-dihydro-2,3,1-benzodiazaborinin-1-ol

> <Collections>
TrainingSet_Kleb_p_ALPerryman_JSF

> <ChEMBL_Data_Neisseria_g: Qualifier_for_MIC_Ng>
=

> <ChEMBL_Data_Neisseria_g: ASSAY_CHEMBLID>
CHEMBL858169

> <ChEMBL_Data_Neisseria_g: DESCRIPTION_of_Assay_Ng>
Minimum inhibitory concentration of compound against Neisseria gonorrhoeae W2

> <ChEMBL_Data_Neisseria_g: PUBMED_ID>
6379179

> <ChEMBL_Data_Neisseria_g: YEAR>
1984

> <ChEMBL_Data_Neisseria_g: JOURNAL>
J. Med. Chem.

> <ChEMBL_Data_Neisseria_g: VOLUME>
27

> <ChEMBL_Data_Neisseria_g: FIRST_PAGE>
947

> <ChEMBL_Data_Neisseria_g: MIC_vs_Neisseria_microg_per_mL>
8

> <ALogP>
3.876

> <Active>
1

> <Molecular_Weight>
314.167

$$$$

Generated by Molecular Materials Informatics

 22 24  0  0  0  0  0  0  0  0999 V2000
   -3.6553    1.2760    0.0000 C   0  0  0  0  0  0  0  0  0  0  0  0
   -2.9053   -0.0229    0.0000 C   0  0  0  0  0  0  0  0  0  0  0  0
   -1.4053   -0.0229    0.0000 C   0  0  0  0  0  0  0  0  0  0  0  0
   -0.5236    1.1906    0.0000 C   0  0  0  0  0  0  0  0  0  0  0  0
    0.9029    0.7271    0.0000 C   0  0  0  0  0  0  0  0  0  0  0  0
    2.2020    1.4771    0.0000 C   0  0  0  0  0  0  0  0  0  0  0  0
    3.5011    0.7271    0.0000 C   0  0  0  0  0  0  0  0  0  0  0  0
    3.5011   -0.7729    0.0000 N   0  0  0  0  0  0  0  0  0  0  0  0
    2.2020   -1.5229    0.0000 B   0  0  0  0  0  0  0  0  0  0  0  0
    2.2020   -3.0229    0.0000 O   0  0  0  0  0  0  0  0  0  0  0  0
    0.9029   -0.7729    0.0000 C   0  0  0  0  0  0  0  0  0  0  0  0
   -0.5236   -1.2365    0.0000 S   0  0  0  0  0  0  0  0  0  0  0  0
    4.8002   -1.5229    0.0000 S   0  0  0  0  0  0  0  0  0  0  0  0
    4.0502   -2.8220    0.0000 O   0  0  0  0  0  0  0  0  0  0  0  0
    5.5502   -0.2240    0.0000 O   0  0  0  0  0  0  0  0  0  0  0  0
    6.0991   -2.2729    0.0000 C   0  0  0  0  0  0  0  0  0  0  0  0
    7.3982   -1.5229    0.0000 C   0  0  0  0  0  0  0  0  0  0  0  0
    8.6973   -2.2729    0.0000 C   0  0  0  0  0  0  0  0  0  0  0  0
    8.6973   -3.7729    0.0000 C   0  0  0  0  0  0  0  0  0  0  0  0
    9.9962   -4.5229    0.0000 C   0  0  0  0  0  0  0  0  0  0  0  0
    7.3982   -4.5229    0.0000 C   0  0  0  0  0  0  0  0  0  0  0  0
    6.0991   -3.7729    0.0000 C   0  0  0  0  0  0  0  0  0  0  0  0
  1  2  1  0  0  0  0
  2  3  1  0  0  0  0
  3  4  2  0  0  0  0
  4  5  1  0  0  0  0
  5  6  1  0  0  0  0
  6  7  2  0  0  0  0
  7  8  1  0  0  0  0
  8  9  1  0  0  0  0
  9 10  1  0  0  0  0
  9 11  1  0  0  0  0
  5 11  2  0  0  0  0
 11 12  1  0  0  0  0
  3 12  1  0  0  0  0
  8 13  1  0  0  0  0
 13 14  2  0  0  0  0
 13 15  2  0  0  0  0
 13 16  1  0  0  0  0
 16 17  2  0  0  0  0
 17 18  1  0  0  0  0
 18 19  2  0  0  0  0
 19 20  1  0  0  0  0
 19 21  1  0  0  0  0
 21 22  2  0  0  0  0
 16 22  1  0  0  0  0
M  END
> <Molecule Name>
CHEMBL366825

> <IUPAC>
6-ethyl-2-(4-methylbenzenesulfonyl)-1H,2H-thieno[2,3-c][1,2]azaborinin-1-ol

> <Collections>
TrainingSet_Kleb_p_ALPerryman_JSF

> <ChEMBL_Data_Neisseria_g: Qualifier_for_MIC_Ng>
=

> <ChEMBL_Data_Neisseria_g: ASSAY_CHEMBLID>
CHEMBL858169

> <ChEMBL_Data_Neisseria_g: DESCRIPTION_of_Assay_Ng>
Minimum inhibitory concentration of compound against Neisseria gonorrhoeae W2

> <ChEMBL_Data_Neisseria_g: PUBMED_ID>
6379179

> <ChEMBL_Data_Neisseria_g: YEAR>
1984

> <ChEMBL_Data_Neisseria_g: JOURNAL>
J. Med. Chem.

> <ChEMBL_Data_Neisseria_g: VOLUME>
27

> <ChEMBL_Data_Neisseria_g: FIRST_PAGE>
947

> <ChEMBL_Data_Neisseria_g: MIC_vs_Neisseria_microg_per_mL>
0.5

> <ALogP>
3.743

> <Active>
1

> <Molecular_Weight>
333.233

$$$$

Generated by Molecular Materials Informatics

 17 18  0  0  0  0  0  0  0  0999 V2000
    8.8207    3.4354    0.0000 C   0  0  0  0  0  0  0  0  0  0  0  0
    7.5216    2.6854    0.0000 C   0  0  0  0  0  0  0  0  0  0  0  0
    6.2225    3.4354    0.0000 C   0  0  0  0  0  0  0  0  0  0  0  0
    4.9237    2.6854    0.0000 S   0  0  0  0  0  0  0  0  0  0  0  0
    4.1737    3.9845    0.0000 O   0  0  0  0  0  0  0  0  0  0  0  0
    5.6736    1.3865    0.0000 O   0  0  0  0  0  0  0  0  0  0  0  0
    3.6246    1.9354    0.0000 N   0  0  0  0  0  0  0  0  0  0  0  0
    3.6246    0.4354    0.0000 C   0  0  0  0  0  0  0  0  0  0  0  0
    2.3255   -0.3146    0.0000 C   0  0  0  0  0  0  0  0  0  0  0  0
    1.0264    0.4354    0.0000 C   0  0  0  0  0  0  0  0  0  0  0  0
   -0.4001   -0.0280    0.0000 C   0  0  0  0  0  0  0  0  0  0  0  0
   -1.2817    1.1854    0.0000 C   0  0  0  0  0  0  0  0  0  0  0  0
   -2.7817    1.1854    0.0000 C   0  0  0  0  0  0  0  0  0  0  0  0
   -0.4001    2.3990    0.0000 S   0  0  0  0  0  0  0  0  0  0  0  0
    1.0264    1.9354    0.0000 C   0  0  0  0  0  0  0  0  0  0  0  0
    2.3255    2.6854    0.0000 B   0  0  0  0  0  0  0  0  0  0  0  0
    2.3255    4.1854    0.0000 O   0  0  0  0  0  0  0  0  0  0  0  0
  1  2  1  0  0  0  0
  2  3  1  0  0  0  0
  3  4  1  0  0  0  0
  4  5  2  0  0  0  0
  4  6  2  0  0  0  0
  4  7  1  0  0  0  0
  7  8  1  0  0  0  0
  8  9  2  0  0  0  0
  9 10  1  0  0  0  0
 10 11  1  0  0  0  0
 11 12  2  0  0  0  0
 12 13  1  0  0  0  0
 12 14  1  0  0  0  0
 14 15  1  0  0  0  0
 10 15  2  0  0  0  0
 15 16  1  0  0  0  0
  7 16  1  0  0  0  0
 16 17  1  0  0  0  0
M  END
> <Molecule Name>
CHEMBL366658

> <IUPAC>
6-methyl-2-(propane-1-sulfonyl)-1H,2H-thieno[2,3-c][1,2]azaborinin-1-ol

> <Collections>
TrainingSet_Kleb_p_ALPerryman_JSF

> <ChEMBL_Data_Neisseria_g: Qualifier_for_MIC_Ng>
=

> <ChEMBL_Data_Neisseria_g: ASSAY_CHEMBLID>
CHEMBL858169

> <ChEMBL_Data_Neisseria_g: DESCRIPTION_of_Assay_Ng>
Minimum inhibitory concentration of compound against Neisseria gonorrhoeae W2

> <ChEMBL_Data_Neisseria_g: PUBMED_ID>
6379179

> <ChEMBL_Data_Neisseria_g: YEAR>
1984

> <ChEMBL_Data_Neisseria_g: JOURNAL>
J. Med. Chem.

> <ChEMBL_Data_Neisseria_g: VOLUME>
27

> <ChEMBL_Data_Neisseria_g: FIRST_PAGE>
947

> <ChEMBL_Data_Neisseria_g: MIC_vs_Neisseria_microg_per_mL>
1

> <ALogP>
1.886

> <Active>
1

> <Molecular_Weight>
271.164

$$$$

Generated by Molecular Materials Informatics

 41 46  0  0  0  0  0  0  0  0999 V2000
   -2.7921   -5.2070    0.0000 C   0  0  0  0  0  0  0  0  0  0  0  0
   -1.3250   -5.5192    0.0000 O   0  0  0  0  0  0  0  0  0  0  0  0
   -0.3210   -4.4048    0.0000 C   0  0  0  0  0  0  0  0  0  0  0  0
   -0.7841   -2.9780    0.0000 O   0  0  0  0  0  0  0  0  0  0  0  0
    1.1461   -4.7172    0.0000 C   0  0  0  0  0  0  0  0  0  0  0  0
    2.1501   -3.6026    0.0000 C   0  0  0  0  0  0  0  0  0  0  0  0
    3.6174   -3.9150    0.0000 C   0  0  0  0  0  0  0  0  0  0  0  0
    4.6214   -2.8006    0.0000 C   0  0  0  0  0  0  0  0  0  0  0  0
    6.0885   -3.1128    0.0000 C   0  0  0  0  0  0  0  0  0  0  0  0
    7.0925   -1.9984    0.0000 C   0  0  0  0  0  0  0  0  0  0  0  0
    6.6294   -0.5717    0.0000 O   0  0  0  0  0  0  0  0  0  0  0  0
    8.5596   -2.3108    0.0000 C   0  0  0  0  0  0  0  0  0  0  0  0
    9.0227   -3.7373    0.0000 C   0  0  0  0  0  0  0  0  0  0  0  0
    9.6326   -5.1079    0.0000 C   0  0  0  0  0  0  0  0  0  0  0  0
   11.1244   -4.9515    0.0000 C   0  0  0  0  0  0  0  0  0  0  0  0
   11.4366   -3.4844    0.0000 C   0  0  0  0  0  0  0  0  0  0  0  0
   10.1378   -2.7340    0.0000 O   0  0  0  0  0  0  0  0  0  0  0  0
   12.8633   -3.0213    0.0000 C   0  0  0  0  0  0  0  0  0  0  0  0
   13.1757   -1.5542    0.0000 O   0  0  0  0  0  0  0  0  0  0  0  0
   13.9779   -4.0253    0.0000 C   0  0  0  0  0  0  0  0  0  0  0  0
   15.4046   -3.5622    0.0000 C   0  0  0  0  0  0  0  0  0  0  0  0
   15.7168   -2.0951    0.0000 O   0  0  0  0  0  0  0  0  0  0  0  0
   16.5190   -4.5662    0.0000 C   0  0  0  0  0  0  0  0  0  0  0  0
   17.9457   -4.1032    0.0000 N   0  0  0  0  0  0  0  0  0  0  0  0
   18.2581   -2.6360    0.0000 C   0  0  0  0  0  0  0  0  0  0  0  0
   19.6848   -2.1730    0.0000 C   0  0  0  0  0  0  0  0  0  0  0  0
   19.9970   -0.7058    0.0000 O   0  0  0  0  0  0  0  0  0  0  0  0
   16.2066   -6.0334    0.0000 C   0  0  0  0  0  0  0  0  0  0  0  0
   14.7799   -6.4965    0.0000 C   0  0  0  0  0  0  0  0  0  0  0  0
   14.4677   -7.9637    0.0000 O   0  0  0  0  0  0  0  0  0  0  0  0
   13.6655   -5.4924    0.0000 C   0  0  0  0  0  0  0  0  0  0  0  0
   12.2388   -5.9555    0.0000 C   0  0  0  0  0  0  0  0  0  0  0  0
   11.9266   -7.4228    0.0000 O   0  0  0  0  0  0  0  0  0  0  0  0
    8.0187   -4.8519    0.0000 O   0  0  0  0  0  0  0  0  0  0  0  0
    6.5516   -4.5395    0.0000 C   0  0  0  0  0  0  0  0  0  0  0  0
    5.5476   -5.6539    0.0000 C   0  0  0  0  0  0  0  0  0  0  0  0
    6.0107   -7.0806    0.0000 O   0  0  0  0  0  0  0  0  0  0  0  0
    4.0805   -5.3417    0.0000 C   0  0  0  0  0  0  0  0  0  0  0  0
    3.0765   -6.4561    0.0000 C   0  0  0  0  0  0  0  0  0  0  0  0
    3.5396   -7.8828    0.0000 O   0  0  0  0  0  0  0  0  0  0  0  0
    1.6092   -6.1439    0.0000 O   0  0  0  0  0  0  0  0  0  0  0  0
  1  2  1  0  0  0  0
  2  3  1  0  0  0  0
  3  4  2  0  0  0  0
  3  5  1  0  0  0  0
  5  6  2  0  0  0  0
  6  7  1  0  0  0  0
  7  8  2  0  0  0  0
  8  9  1  0  0  0  0
  9 10  1  0  0  0  0
 10 11  1  0  0  0  0
 10 12  1  0  0  0  0
 12 13  1  0  0  0  0
 13 14  1  0  0  0  0
 14 15  1  0  0  0  0
 15 16  2  0  0  0  0
 16 17  1  0  0  0  0
 13 17  1  0  0  0  0
 16 18  1  0  0  0  0
 18 19  2  0  0  0  0
 18 20  1  0  0  0  0
 20 21  2  0  0  0  0
 21 22  1  0  0  0  0
 21 23  1  0  0  0  0
 23 24  1  0  0  0  0
 24 25  1  0  0  0  0
 25 26  1  0  0  0  0
 26 27  1  0  0  0  0
 23 28  2  0  0  0  0
 28 29  1  0  0  0  0
 29 30  1  0  0  0  0
 29 31  2  0  0  0  0
 20 31  1  0  0  0  0
 31 32  1  0  0  0  0
 15 32  1  0  0  0  0
 32 33  2  0  0  0  0
 13 34  1  0  0  0  0
 34 35  1  0  0  0  0
  9 35  2  0  0  0  0
 35 36  1  0  0  0  0
 36 37  1  0  0  0  0
 36 38  2  0  0  0  0
  7 38  1  0  0  0  0
 38 39  1  0  0  0  0
 39 40  2  0  0  0  0
 39 41  1  0  0  0  0
  5 41  1  0  0  0  0
M  END
> <Molecule Name>
CHEMBL366584

> <IUPAC>
methyl 4',5,8,10'-tetrahydroxy-7-[(2-hydroxyethyl)amino]-4,9,9'-trioxo-4,4',9,9'-tetrahydro-3H,3'H-spiro[naphtho[2,3-b]furan-2,2'-pyrano[3,2-g]isochromene]-7'-carboxylate

> <Collections>
Set2_NotListedAsBetaLactamResistant (mostly)

> <ChEMBL_Data_Neisseria_g: NUM_RO5_VIOLATIONS>
3

> <ChEMBL_Data_Neisseria_g: Qualifier_for_MIC_Ng>
=

> <ChEMBL_Data_Neisseria_g: ASSAY_CHEMBLID>
CHEMBL753613

> <ChEMBL_Data_Neisseria_g: DESCRIPTION_of_Assay_Ng>
In vitro antimicrobial activity against Neisseria gonorrhoeae L997

> <ChEMBL_Data_Neisseria_g: PUBMED_ID>
9083486

> <ChEMBL_Data_Neisseria_g: YEAR>
1997

> <ChEMBL_Data_Neisseria_g: JOURNAL>
J. Med. Chem.

> <ChEMBL_Data_Neisseria_g: VOLUME>
40

> <ChEMBL_Data_Neisseria_g: FIRST_PAGE>
967

> <ChEMBL_Data_Neisseria_g: MIC_vs_Neisseria_microg_per_mL>
0.03

> <ALogP>
0.703

> <Active>
1

> <Molecular_Weight>
567.455

$$$$

Generated by Molecular Materials Informatics

 43 48  0  0  0  0  0  0  0  0999 V2000
   -3.4741   -5.2070    0.0000 C   0  0  0  0  0  0  0  0  0  0  0  0
   -2.0070   -5.5192    0.0000 O   0  0  0  0  0  0  0  0  0  0  0  0
   -1.0030   -4.4048    0.0000 C   0  0  0  0  0  0  0  0  0  0  0  0
   -1.4661   -2.9781    0.0000 O   0  0  0  0  0  0  0  0  0  0  0  0
    0.4641   -4.7172    0.0000 C   0  0  0  0  0  0  0  0  0  0  0  0
    1.4681   -3.6026    0.0000 C   0  0  0  0  0  0  0  0  0  0  0  0
    2.9354   -3.9150    0.0000 C   0  0  0  0  0  0  0  0  0  0  0  0
    3.9394   -2.8006    0.0000 C   0  0  0  0  0  0  0  0  0  0  0  0
    5.4065   -3.1128    0.0000 C   0  0  0  0  0  0  0  0  0  0  0  0
    6.4105   -1.9984    0.0000 C   0  0  0  0  0  0  0  0  0  0  0  0
    5.9474   -0.5717    0.0000 O   0  0  0  0  0  0  0  0  0  0  0  0
    7.8776   -2.3108    0.0000 C   0  0  0  0  0  0  0  0  0  0  0  0
    8.3407   -3.7373    0.0000 C   0  0  0  0  0  0  0  0  0  0  0  0
    8.9505   -5.1079    0.0000 C   0  0  0  0  0  0  0  0  0  0  0  0
   10.4424   -4.9515    0.0000 C   0  0  0  0  0  0  0  0  0  0  0  0
   10.7545   -3.4844    0.0000 C   0  0  0  0  0  0  0  0  0  0  0  0
    9.4558   -2.7341    0.0000 O   0  0  0  0  0  0  0  0  0  0  0  0
   12.1813   -3.0213    0.0000 C   0  0  0  0  0  0  0  0  0  0  0  0
   12.4936   -1.5542    0.0000 O   0  0  0  0  0  0  0  0  0  0  0  0
   13.2958   -4.0253    0.0000 C   0  0  0  0  0  0  0  0  0  0  0  0
   14.7226   -3.5622    0.0000 C   0  0  0  0  0  0  0  0  0  0  0  0
   15.0348   -2.0951    0.0000 O   0  0  0  0  0  0  0  0  0  0  0  0
   15.8369   -4.5662    0.0000 C   0  0  0  0  0  0  0  0  0  0  0  0
   17.2637   -4.1032    0.0000 N   0  0  0  0  0  0  0  0  0  0  0  0
   18.3780   -5.1072    0.0000 C   0  0  0  0  0  0  0  0  0  0  0  0
   19.8048   -4.6441    0.0000 C   0  0  0  0  0  0  0  0  0  0  0  0
   20.9193   -5.6481    0.0000 N   0  0  0  0  0  0  0  0  0  0  0  0
   22.3461   -5.1850    0.0000 C   0  0  0  0  0  0  0  0  0  0  0  0
   20.6070   -7.1152    0.0000 C   0  0  0  0  0  0  0  0  0  0  0  0
   15.5246   -6.0333    0.0000 C   0  0  0  0  0  0  0  0  0  0  0  0
   14.0978   -6.4964    0.0000 C   0  0  0  0  0  0  0  0  0  0  0  0
   13.7857   -7.9637    0.0000 O   0  0  0  0  0  0  0  0  0  0  0  0
   12.9835   -5.4924    0.0000 C   0  0  0  0  0  0  0  0  0  0  0  0
   11.5567   -5.9555    0.0000 C   0  0  0  0  0  0  0  0  0  0  0  0
   11.2446   -7.4228    0.0000 O   0  0  0  0  0  0  0  0  0  0  0  0
    7.3367   -4.8519    0.0000 O   0  0  0  0  0  0  0  0  0  0  0  0
    5.8696   -4.5395    0.0000 C   0  0  0  0  0  0  0  0  0  0  0  0
    4.8656   -5.6539    0.0000 C   0  0  0  0  0  0  0  0  0  0  0  0
    5.3287   -7.0806    0.0000 O   0  0  0  0  0  0  0  0  0  0  0  0
    3.3985   -5.3417    0.0000 C   0  0  0  0  0  0  0  0  0  0  0  0
    2.3945   -6.4561    0.0000 C   0  0  0  0  0  0  0  0  0  0  0  0
    2.8576   -7.8828    0.0000 O   0  0  0  0  0  0  0  0  0  0  0  0
    0.9272   -6.1439    0.0000 O   0  0  0  0  0  0  0  0  0  0  0  0
  1  2  1  0  0  0  0
  2  3  1  0  0  0  0
  3  4  2  0  0  0  0
  3  5  1  0  0  0  0
  5  6  2  0  0  0  0
  6  7  1  0  0  0  0
  7  8  2  0  0  0  0
  8  9  1  0  0  0  0
  9 10  1  0  0  0  0
 10 11  1  0  0  0  0
 10 12  1  0  0  0  0
 12 13  1  0  0  0  0
 13 14  1  0  0  0  0
 14 15  1  0  0  0  0
 15 16  2  0  0  0  0
 16 17  1  0  0  0  0
 13 17  1  0  0  0  0
 16 18  1  0  0  0  0
 18 19  2  0  0  0  0
 18 20  1  0  0  0  0
 20 21  2  0  0  0  0
 21 22  1  0  0  0  0
 21 23  1  0  0  0  0
 23 24  1  0  0  0  0
 24 25  1  0  0  0  0
 25 26  1  0  0  0  0
 26 27  1  0  0  0  0
 27 28  1  0  0  0  0
 27 29  1  0  0  0  0
 23 30  2  0  0  0  0
 30 31  1  0  0  0  0
 31 32  1  0  0  0  0
 31 33  2  0  0  0  0
 20 33  1  0  0  0  0
 33 34  1  0  0  0  0
 15 34  1  0  0  0  0
 34 35  2  0  0  0  0
 13 36  1  0  0  0  0
 36 37  1  0  0  0  0
  9 37  2  0  0  0  0
 37 38  1  0  0  0  0
 38 39  1  0  0  0  0
 38 40  2  0  0  0  0
  7 40  1  0  0  0  0
 40 41  1  0  0  0  0
 41 42  2  0  0  0  0
 41 43  1  0  0  0  0
  5 43  1  0  0  0  0
M  END
> <Molecule Name>
CHEMBL366566

> <IUPAC>
methyl 7-{[2-(dimethylamino)ethyl]amino}-4',5,8,10'-tetrahydroxy-4,9,9'-trioxo-4,4',9,9'-tetrahydro-3H,3'H-spiro[naphtho[2,3-b]furan-2,2'-pyrano[3,2-g]isochromene]-7'-carboxylate

> <Collections>
Set2_NotListedAsBetaLactamResistant (mostly)

> <ChEMBL_Data_Neisseria_g: NUM_RO5_VIOLATIONS>
2

> <ChEMBL_Data_Neisseria_g: Qualifier_for_MIC_Ng>
=

> <ChEMBL_Data_Neisseria_g: ASSAY_CHEMBLID>
CHEMBL753613

> <ChEMBL_Data_Neisseria_g: DESCRIPTION_of_Assay_Ng>
In vitro antimicrobial activity against Neisseria gonorrhoeae L997

> <ChEMBL_Data_Neisseria_g: PUBMED_ID>
9083486

> <ChEMBL_Data_Neisseria_g: YEAR>
1997

> <ChEMBL_Data_Neisseria_g: JOURNAL>
J. Med. Chem.

> <ChEMBL_Data_Neisseria_g: VOLUME>
40

> <ChEMBL_Data_Neisseria_g: FIRST_PAGE>
967

> <ChEMBL_Data_Neisseria_g: MIC_vs_Neisseria_microg_per_mL>
0.13

> <ALogP>
1.381

> <Active>
1

> <Molecular_Weight>
594.523

$$$$

Generated by Molecular Materials Informatics

 48 53  0  0  0  0  0  0  0  0999 V2000
   -4.3668   -5.2070    0.0000 C   0  0  0  0  0  0  0  0  0  0  0  0
   -2.8997   -5.5192    0.0000 O   0  0  0  0  0  0  0  0  0  0  0  0
   -1.8957   -4.4048    0.0000 C   0  0  0  0  0  0  0  0  0  0  0  0
   -2.3588   -2.9781    0.0000 O   0  0  0  0  0  0  0  0  0  0  0  0
   -0.4286   -4.7172    0.0000 C   0  0  0  0  0  0  0  0  0  0  0  0
    0.5754   -3.6026    0.0000 C   0  0  0  0  0  0  0  0  0  0  0  0
    2.0427   -3.9150    0.0000 C   0  0  0  0  0  0  0  0  0  0  0  0
    3.0467   -2.8006    0.0000 C   0  0  0  0  0  0  0  0  0  0  0  0
    4.5138   -3.1128    0.0000 C   0  0  0  0  0  0  0  0  0  0  0  0
    5.5178   -1.9984    0.0000 C   0  0  0  0  0  0  0  0  0  0  0  0
    5.0547   -0.5717    0.0000 O   0  0  0  0  0  0  0  0  0  0  0  0
    6.9849   -2.3108    0.0000 C   0  0  0  0  0  0  0  0  0  0  0  0
    7.4480   -3.7373    0.0000 C   0  0  0  0  0  0  0  0  0  0  0  0
    8.0578   -5.1079    0.0000 C   0  0  0  0  0  0  0  0  0  0  0  0
    9.5496   -4.9515    0.0000 C   0  0  0  0  0  0  0  0  0  0  0  0
    9.8618   -3.4844    0.0000 C   0  0  0  0  0  0  0  0  0  0  0  0
    8.5631   -2.7341    0.0000 O   0  0  0  0  0  0  0  0  0  0  0  0
   11.2885   -3.0213    0.0000 C   0  0  0  0  0  0  0  0  0  0  0  0
   11.6009   -1.5542    0.0000 O   0  0  0  0  0  0  0  0  0  0  0  0
   12.4031   -4.0253    0.0000 C   0  0  0  0  0  0  0  0  0  0  0  0
   13.8298   -3.5622    0.0000 C   0  0  0  0  0  0  0  0  0  0  0  0
   14.1420   -2.0952    0.0000 O   0  0  0  0  0  0  0  0  0  0  0  0
   14.9442   -4.5662    0.0000 C   0  0  0  0  0  0  0  0  0  0  0  0
   16.3709   -4.1032    0.0000 N   0  0  0  0  0  0  0  0  0  0  0  0
   17.4852   -5.1072    0.0000 C   0  0  0  0  0  0  0  0  0  0  0  0
   18.9120   -4.6441    0.0000 C   0  0  0  0  0  0  0  0  0  0  0  0
   20.0265   -5.6481    0.0000 N   0  0  0  0  0  0  0  0  0  0  0  0
   21.4533   -5.1850    0.0000 C   0  0  0  0  0  0  0  0  0  0  0  0
   21.7654   -3.7179    0.0000 O   0  0  0  0  0  0  0  0  0  0  0  0
   22.5676   -6.1890    0.0000 O   0  0  0  0  0  0  0  0  0  0  0  0
   23.9943   -5.7259    0.0000 C   0  0  0  0  0  0  0  0  0  0  0  0
   25.4211   -5.2628    0.0000 C   0  0  0  0  0  0  0  0  0  0  0  0
   24.4574   -7.1526    0.0000 C   0  0  0  0  0  0  0  0  0  0  0  0
   23.5312   -4.2992    0.0000 C   0  0  0  0  0  0  0  0  0  0  0  0
   14.6318   -6.0333    0.0000 C   0  0  0  0  0  0  0  0  0  0  0  0
   13.2051   -6.4964    0.0000 C   0  0  0  0  0  0  0  0  0  0  0  0
   12.8929   -7.9637    0.0000 O   0  0  0  0  0  0  0  0  0  0  0  0
   12.0907   -5.4924    0.0000 C   0  0  0  0  0  0  0  0  0  0  0  0
   10.6640   -5.9555    0.0000 C   0  0  0  0  0  0  0  0  0  0  0  0
   10.3518   -7.4228    0.0000 O   0  0  0  0  0  0  0  0  0  0  0  0
    6.4440   -4.8519    0.0000 O   0  0  0  0  0  0  0  0  0  0  0  0
    4.9769   -4.5395    0.0000 C   0  0  0  0  0  0  0  0  0  0  0  0
    3.9729   -5.6539    0.0000 C   0  0  0  0  0  0  0  0  0  0  0  0
    4.4360   -7.0806    0.0000 O   0  0  0  0  0  0  0  0  0  0  0  0
    2.5058   -5.3417    0.0000 C   0  0  0  0  0  0  0  0  0  0  0  0
    1.5018   -6.4561    0.0000 C   0  0  0  0  0  0  0  0  0  0  0  0
    1.9649   -7.8828    0.0000 O   0  0  0  0  0  0  0  0  0  0  0  0
    0.0345   -6.1439    0.0000 O   0  0  0  0  0  0  0  0  0  0  0  0
  1  2  1  0  0  0  0
  2  3  1  0  0  0  0
  3  4  2  0  0  0  0
  3  5  1  0  0  0  0
  5  6  2  0  0  0  0
  6  7  1  0  0  0  0
  7  8  2  0  0  0  0
  8  9  1  0  0  0  0
  9 10  1  0  0  0  0
 10 11  1  0  0  0  0
 10 12  1  0  0  0  0
 12 13  1  0  0  0  0
 13 14  1  0  0  0  0
 14 15  1  0  0  0  0
 15 16  2  0  0  0  0
 16 17  1  0  0  0  0
 13 17  1  0  0  0  0
 16 18  1  0  0  0  0
 18 19  2  0  0  0  0
 18 20  1  0  0  0  0
 20 21  2  0  0  0  0
 21 22  1  0  0  0  0
 21 23  1  0  0  0  0
 23 24  1  0  0  0  0
 24 25  1  0  0  0  0
 25 26  1  0  0  0  0
 26 27  1  0  0  0  0
 27 28  1  0  0  0  0
 28 29  2  0  0  0  0
 28 30  1  0  0  0  0
 30 31  1  0  0  0  0
 31 32  1  0  0  0  0
 31 33  1  0  0  0  0
 31 34  1  0  0  0  0
 23 35  2  0  0  0  0
 35 36  1  0  0  0  0
 36 37  1  0  0  0  0
 36 38  2  0  0  0  0
 20 38  1  0  0  0  0
 38 39  1  0  0  0  0
 15 39  1  0  0  0  0
 39 40  2  0  0  0  0
 13 41  1  0  0  0  0
 41 42  1  0  0  0  0
  9 42  2  0  0  0  0
 42 43  1  0  0  0  0
 43 44  1  0  0  0  0
 43 45  2  0  0  0  0
  7 45  1  0  0  0  0
 45 46  1  0  0  0  0
 46 47  2  0  0  0  0
 46 48  1  0  0  0  0
  5 48  1  0  0  0  0
M  END
> <Molecule Name>
CHEMBL366565

> <IUPAC>
methyl 7-[(2-{[(tert-butoxy)carbonyl]amino}ethyl)amino]-4',5,8,10'-tetrahydroxy-4,9,9'-trioxo-4,4',9,9'-tetrahydro-3H,3'H-spiro[naphtho[2,3-b]furan-2,2'-pyrano[3,2-g]isochromene]-7'-carboxylate

> <Collections>
Set2_NotListedAsBetaLactamResistant (mostly)

> <ChEMBL_Data_Neisseria_g: NUM_RO5_VIOLATIONS>
3

> <ChEMBL_Data_Neisseria_g: Qualifier_for_MIC_Ng>
=

> <ChEMBL_Data_Neisseria_g: ASSAY_CHEMBLID>
CHEMBL753613

> <ChEMBL_Data_Neisseria_g: DESCRIPTION_of_Assay_Ng>
In vitro antimicrobial activity against Neisseria gonorrhoeae L997

> <ChEMBL_Data_Neisseria_g: PUBMED_ID>
9083486

> <ChEMBL_Data_Neisseria_g: YEAR>
1997

> <ChEMBL_Data_Neisseria_g: JOURNAL>
J. Med. Chem.

> <ChEMBL_Data_Neisseria_g: VOLUME>
40

> <ChEMBL_Data_Neisseria_g: FIRST_PAGE>
967

> <ChEMBL_Data_Neisseria_g: MIC_vs_Neisseria_microg_per_mL>
0.13

> <ALogP>
2.009

> <Active>
1

> <Molecular_Weight>
666.586

$$$$

Generated by Molecular Materials Informatics

 43 48  0  0  0  0  0  0  0  0999 V2000
   -3.2232   -5.2070    0.0000 C   0  0  0  0  0  0  0  0  0  0  0  0
   -1.7562   -5.5192    0.0000 O   0  0  0  0  0  0  0  0  0  0  0  0
   -0.7522   -4.4048    0.0000 C   0  0  0  0  0  0  0  0  0  0  0  0
   -1.2152   -2.9781    0.0000 O   0  0  0  0  0  0  0  0  0  0  0  0
    0.7149   -4.7172    0.0000 C   0  0  0  0  0  0  0  0  0  0  0  0
    1.7189   -3.6026    0.0000 C   0  0  0  0  0  0  0  0  0  0  0  0
    3.1862   -3.9150    0.0000 C   0  0  0  0  0  0  0  0  0  0  0  0
    4.1902   -2.8006    0.0000 C   0  0  0  0  0  0  0  0  0  0  0  0
    5.6573   -3.1128    0.0000 C   0  0  0  0  0  0  0  0  0  0  0  0
    6.6613   -1.9984    0.0000 C   0  0  0  0  0  0  0  0  0  0  0  0
    6.1982   -0.5717    0.0000 O   0  0  0  0  0  0  0  0  0  0  0  0
    8.1284   -2.3108    0.0000 C   0  0  0  0  0  0  0  0  0  0  0  0
    8.5915   -3.7373    0.0000 C   0  0  0  0  0  0  0  0  0  0  0  0
    9.2013   -5.1079    0.0000 C   0  0  0  0  0  0  0  0  0  0  0  0
   10.6931   -4.9515    0.0000 C   0  0  0  0  0  0  0  0  0  0  0  0
   11.0053   -3.4844    0.0000 C   0  0  0  0  0  0  0  0  0  0  0  0
    9.7066   -2.7341    0.0000 O   0  0  0  0  0  0  0  0  0  0  0  0
   12.4320   -3.0213    0.0000 C   0  0  0  0  0  0  0  0  0  0  0  0
   12.7444   -1.5542    0.0000 O   0  0  0  0  0  0  0  0  0  0  0  0
   13.5466   -4.0253    0.0000 C   0  0  0  0  0  0  0  0  0  0  0  0
   14.9733   -3.5622    0.0000 C   0  0  0  0  0  0  0  0  0  0  0  0
   15.2855   -2.0952    0.0000 O   0  0  0  0  0  0  0  0  0  0  0  0
   16.0877   -4.5662    0.0000 C   0  0  0  0  0  0  0  0  0  0  0  0
   17.5144   -4.1032    0.0000 N   0  0  0  0  0  0  0  0  0  0  0  0
   18.6288   -5.1072    0.0000 C   0  0  0  0  0  0  0  0  0  0  0  0
   20.0555   -4.6441    0.0000 C   0  0  0  0  0  0  0  0  0  0  0  0
   21.4822   -4.1810    0.0000 F   0  0  0  0  0  0  0  0  0  0  0  0
   20.5186   -6.0708    0.0000 F   0  0  0  0  0  0  0  0  0  0  0  0
   19.5924   -3.2173    0.0000 F   0  0  0  0  0  0  0  0  0  0  0  0
   15.7753   -6.0333    0.0000 C   0  0  0  0  0  0  0  0  0  0  0  0
   14.3486   -6.4964    0.0000 C   0  0  0  0  0  0  0  0  0  0  0  0
   14.0364   -7.9637    0.0000 O   0  0  0  0  0  0  0  0  0  0  0  0
   13.2342   -5.4924    0.0000 C   0  0  0  0  0  0  0  0  0  0  0  0
   11.8075   -5.9555    0.0000 C   0  0  0  0  0  0  0  0  0  0  0  0
   11.4953   -7.4228    0.0000 O   0  0  0  0  0  0  0  0  0  0  0  0
    7.5875   -4.8519    0.0000 O   0  0  0  0  0  0  0  0  0  0  0  0
    6.1204   -4.5395    0.0000 C   0  0  0  0  0  0  0  0  0  0  0  0
    5.1164   -5.6539    0.0000 C   0  0  0  0  0  0  0  0  0  0  0  0
    5.5795   -7.0806    0.0000 O   0  0  0  0  0  0  0  0  0  0  0  0
    3.6493   -5.3417    0.0000 C   0  0  0  0  0  0  0  0  0  0  0  0
    2.6453   -6.4561    0.0000 C   0  0  0  0  0  0  0  0  0  0  0  0
    3.1084   -7.8828    0.0000 O   0  0  0  0  0  0  0  0  0  0  0  0
    1.1780   -6.1439    0.0000 O   0  0  0  0  0  0  0  0  0  0  0  0
  1  2  1  0  0  0  0
  2  3  1  0  0  0  0
  3  4  2  0  0  0  0
  3  5  1  0  0  0  0
  5  6  2  0  0  0  0
  6  7  1  0  0  0  0
  7  8  2  0  0  0  0
  8  9  1  0  0  0  0
  9 10  1  0  0  0  0
 10 11  1  0  0  0  0
 10 12  1  0  0  0  0
 12 13  1  0  0  0  0
 13 14  1  0  0  0  0
 14 15  1  0  0  0  0
 15 16  2  0  0  0  0
 16 17  1  0  0  0  0
 13 17  1  0  0  0  0
 16 18  1  0  0  0  0
 18 19  2  0  0  0  0
 18 20  1  0  0  0  0
 20 21  2  0  0  0  0
 21 22  1  0  0  0  0
 21 23  1  0  0  0  0
 23 24  1  0  0  0  0
 24 25  1  0  0  0  0
 25 26  1  0  0  0  0
 26 27  1  0  0  0  0
 26 28  1  0  0  0  0
 26 29  1  0  0  0  0
 23 30  2  0  0  0  0
 30 31  1  0  0  0  0
 31 32  1  0  0  0  0
 31 33  2  0  0  0  0
 20 33  1  0  0  0  0
 33 34  1  0  0  0  0
 15 34  1  0  0  0  0
 34 35  2  0  0  0  0
 13 36  1  0  0  0  0
 36 37  1  0  0  0  0
  9 37  2  0  0  0  0
 37 38  1  0  0  0  0
 38 39  1  0  0  0  0
 38 40  2  0  0  0  0
  7 40  1  0  0  0  0
 40 41  1  0  0  0  0
 41 42  2  0  0  0  0
 41 43  1  0  0  0  0
  5 43  1  0  0  0  0
M  END
> <Molecule Name>
CHEMBL366486

> <IUPAC>
methyl 4',5,8,10'-tetrahydroxy-4,9,9'-trioxo-7-[(2,2,2-trifluoroethyl)amino]-4,4',9,9'-tetrahydro-3H,3'H-spiro[naphtho[2,3-b]furan-2,2'-pyrano[3,2-g]isochromene]-7'-carboxylate

> <Collections>
Set2_NotListedAsBetaLactamResistant (mostly)

> <ChEMBL_Data_Neisseria_g: NUM_RO5_VIOLATIONS>
2

> <ChEMBL_Data_Neisseria_g: Qualifier_for_MIC_Ng>
=

> <ChEMBL_Data_Neisseria_g: ASSAY_CHEMBLID>
CHEMBL753613

> <ChEMBL_Data_Neisseria_g: DESCRIPTION_of_Assay_Ng>
In vitro antimicrobial activity against Neisseria gonorrhoeae L997

> <ChEMBL_Data_Neisseria_g: PUBMED_ID>
9083486

> <ChEMBL_Data_Neisseria_g: YEAR>
1997

> <ChEMBL_Data_Neisseria_g: JOURNAL>
J. Med. Chem.

> <ChEMBL_Data_Neisseria_g: VOLUME>
40

> <ChEMBL_Data_Neisseria_g: FIRST_PAGE>
967

> <ChEMBL_Data_Neisseria_g: MIC_vs_Neisseria_microg_per_mL>
0.06

> <ALogP>
2.25

> <Active>
1

> <Molecular_Weight>
605.427

$$$$

Generated by Molecular Materials Informatics

 36 40  0  0  0  0  0  0  0  0999 V2000
   -8.5087    3.4313    0.0000 C   0  0  0  0  0  0  0  0  0  0  0  0
   -7.2096    2.6813    0.0000 O   0  0  0  0  0  0  0  0  0  0  0  0
   -7.2096    1.1812    0.0000 C   0  0  0  0  0  0  0  0  0  0  0  0
   -5.9107    0.4312    0.0000 C   0  0  0  0  0  0  0  0  0  0  0  0
   -5.9107   -1.0687    0.0000 C   0  0  0  0  0  0  0  0  0  0  0  0
   -7.2096   -1.8187    0.0000 C   0  0  0  0  0  0  0  0  0  0  0  0
   -8.5087   -1.0687    0.0000 C   0  0  0  0  0  0  0  0  0  0  0  0
   -8.5087    0.4312    0.0000 C   0  0  0  0  0  0  0  0  0  0  0  0
   -9.8078    1.1812    0.0000 O   0  0  0  0  0  0  0  0  0  0  0  0
   -4.6116   -1.8187    0.0000 C   0  0  0  0  0  0  0  0  0  0  0  0
   -3.3125   -1.0687    0.0000 O   0  0  0  0  0  0  0  0  0  0  0  0
   -2.0134   -1.8187    0.0000 C   0  0  0  0  0  0  0  0  0  0  0  0
   -0.7145   -1.0687    0.0000 C   0  0  0  0  0  0  0  0  0  0  0  0
    0.5846   -1.8187    0.0000 C   0  0  0  0  0  0  0  0  0  0  0  0
    0.5846   -3.3187    0.0000 C   0  0  0  0  0  0  0  0  0  0  0  0
   -0.7145   -4.0687    0.0000 C   0  0  0  0  0  0  0  0  0  0  0  0
   -0.7145   -5.5687    0.0000 O   0  0  0  0  0  0  0  0  0  0  0  0
   -2.0134   -6.3187    0.0000 C   0  0  0  0  0  0  0  0  0  0  0  0
   -2.0134   -3.3187    0.0000 C   0  0  0  0  0  0  0  0  0  0  0  0
   -3.3125   -4.0687    0.0000 O   0  0  0  0  0  0  0  0  0  0  0  0
   -4.6116   -3.3187    0.0000 C   0  0  0  0  0  0  0  0  0  0  0  0
   -5.9107   -4.0687    0.0000 C   0  0  0  0  0  0  0  0  0  0  0  0
   -7.2096   -3.3187    0.0000 O   0  0  0  0  0  0  0  0  0  0  0  0
    1.8837   -1.0687    0.0000 C   0  0  0  0  0  0  0  0  0  0  0  0
    1.8837    0.4312    0.0000 C   0  0  0  0  0  0  0  0  0  0  0  0
    3.1826    1.1812    0.0000 C   0  0  0  0  0  0  0  0  0  0  0  0
    3.1826    2.6813    0.0000 O   0  0  0  0  0  0  0  0  0  0  0  0
    4.4817    0.4312    0.0000 C   0  0  0  0  0  0  0  0  0  0  0  0
    5.7808    1.1812    0.0000 C   0  0  0  0  0  0  0  0  0  0  0  0
    5.7808    2.6813    0.0000 O   0  0  0  0  0  0  0  0  0  0  0  0
    7.0799    0.4312    0.0000 C   0  0  0  0  0  0  0  0  0  0  0  0
    7.0799   -1.0687    0.0000 C   0  0  0  0  0  0  0  0  0  0  0  0
    8.3788   -1.8187    0.0000 O   0  0  0  0  0  0  0  0  0  0  0  0
    5.7808   -1.8187    0.0000 C   0  0  0  0  0  0  0  0  0  0  0  0
    4.4817   -1.0687    0.0000 C   0  0  0  0  0  0  0  0  0  0  0  0
    3.1826   -1.8187    0.0000 O   0  0  0  0  0  0  0  0  0  0  0  0
  1  2  1  0  0  0  0
  2  3  1  0  0  0  0
  3  4  2  0  0  0  0
  4  5  1  0  0  0  0
  5  6  2  0  0  0  0
  6  7  1  0  0  0  0
  7  8  2  0  0  0  0
  3  8  1  0  0  0  0
  8  9  1  0  0  0  0
 10  5  1  1  0  0  0
 10 11  1  0  0  0  0
 11 12  1  0  0  0  0
 12 13  2  0  0  0  0
 13 14  1  0  0  0  0
 14 15  2  0  0  0  0
 15 16  1  0  0  0  0
 16 17  1  0  0  0  0
 17 18  1  0  0  0  0
 16 19  2  0  0  0  0
 12 19  1  0  0  0  0
 19 20  1  0  0  0  0
 20 21  1  0  0  0  0
 10 21  1  0  0  0  0
 21 22  1  6  0  0  0
 22 23  1  0  0  0  0
 14 24  1  0  0  0  0
 24 25  2  0  0  0  0
 25 26  1  0  0  0  0
 26 27  2  0  0  0  0
 26 28  1  0  0  0  0
 28 29  2  0  0  0  0
 29 30  1  0  0  0  0
 29 31  1  0  0  0  0
 31 32  2  0  0  0  0
 32 33  1  0  0  0  0
 32 34  1  0  0  0  0
 34 35  2  0  0  0  0
 28 35  1  0  0  0  0
 35 36  1  0  0  0  0
 24 36  1  0  0  0  0
M  END
> <Molecule Name>
CHEMBL328060

> <IUPAC>
5,7-dihydroxy-2-[(2R,3R)-3-(4-hydroxy-3-methoxyphenyl)-2-(hydroxymethyl)-8-methoxy-2,3-dihydro-1,4-benzodioxin-6-yl]-4H-chromen-4-one

> <ChEMBL_Data_Neisseria_g: NUM_RO5_VIOLATIONS>
0

> <ChEMBL_Data_Neisseria_g: Qualifier_for_MIC_Ng>
=

> <ChEMBL_Data_Neisseria_g: ASSAY_CHEMBLID>
CHEMBL1027460

> <ChEMBL_Data_Neisseria_g: DESCRIPTION_of_Assay_Ng>
Antimicrobial activity against Neisseria gonorrhoeae

> <ChEMBL_Data_Neisseria_g: PUBMED_ID>
12608861

> <ChEMBL_Data_Neisseria_g: YEAR>
2003

> <ChEMBL_Data_Neisseria_g: JOURNAL>
J. Nat. Prod.

> <ChEMBL_Data_Neisseria_g: VOLUME>
66

> <ChEMBL_Data_Neisseria_g: FIRST_PAGE>
259

> <ChEMBL_Data_Neisseria_g: MIC_vs_Neisseria_microg_per_mL>
0.625

> <ALogP>
3.264

> <Active>
1

> <Molecular_Weight>
494.447

$$$$

Generated by Molecular Materials Informatics

 30 32  0  0  0  0  0  0  0  0999 V2000
   -5.2204    3.0239    0.0000 C   0  0  0  0  0  0  0  0  0  0  0  0
   -3.9213    3.7739    0.0000 O   0  0  0  0  0  0  0  0  0  0  0  0
   -3.9213    5.2739    0.0000 C   0  0  0  0  0  0  0  0  0  0  0  0
   -5.2204    6.0238    0.0000 C   0  0  0  0  0  0  0  0  0  0  0  0
   -5.2204    7.5238    0.0000 C   0  0  0  0  0  0  0  0  0  0  0  0
   -3.9213    8.2738    0.0000 C   0  0  0  0  0  0  0  0  0  0  0  0
   -2.6223    7.5238    0.0000 C   0  0  0  0  0  0  0  0  0  0  0  0
   -2.6223    6.0238    0.0000 C   0  0  0  0  0  0  0  0  0  0  0  0
   -1.3234    5.2739    0.0000 C   0  0  0  0  0  0  0  0  0  0  0  0
   -1.3234    3.7739    0.0000 C   0  0  0  0  0  0  0  0  0  0  0  0
   -0.0243    3.0239    0.0000 N   0  0  0  0  0  0  0  0  0  0  0  0
   -0.0243    1.5239    0.0000 C   0  0  0  0  0  0  0  0  0  0  0  0
   -1.3234    0.7739    0.0000 N   0  0  0  0  0  0  0  0  0  0  0  0
    1.2748    0.7739    0.0000 N   0  0  0  0  0  0  0  0  0  0  0  0
    1.2748   -0.7260    0.0000 C   0  0  0  0  0  0  0  0  0  0  0  0
    2.4882   -1.6077    0.0000 N   0  0  0  0  0  0  0  0  0  0  0  0
    2.0248   -3.0342    0.0000 C   0  0  0  0  0  0  0  0  0  0  0  0
    0.5248   -3.0342    0.0000 C   0  0  0  0  0  0  0  0  0  0  0  0
    0.0612   -1.6077    0.0000 S   0  0  0  0  0  0  0  0  0  0  0  0
    2.9064   -4.2478    0.0000 C   0  0  0  0  0  0  0  0  0  0  0  0
    4.3982   -4.0909    0.0000 C   0  0  0  0  0  0  0  0  0  0  0  0
    5.2798   -5.3045    0.0000 C   0  0  0  0  0  0  0  0  0  0  0  0
    4.6696   -6.6748    0.0000 C   0  0  0  0  0  0  0  0  0  0  0  0
    3.1780   -6.8316    0.0000 C   0  0  0  0  0  0  0  0  0  0  0  0
    2.5678   -8.2019    0.0000 C   0  0  0  0  0  0  0  0  0  0  0  0
    3.4495   -9.4153    0.0000 N   0  0  0  0  0  0  0  0  0  0  0  0
    2.8395  -10.7857    0.0000 C   0  0  0  0  0  0  0  0  0  0  0  0
    3.7211  -11.9991    0.0000 O   0  0  0  0  0  0  0  0  0  0  0  0
    1.3477  -10.9424    0.0000 C   0  0  0  0  0  0  0  0  0  0  0  0
    2.2962   -5.6181    0.0000 C   0  0  0  0  0  0  0  0  0  0  0  0
  1  2  1  0  0  0  0
  2  3  1  0  0  0  0
  3  4  2  0  0  0  0
  4  5  1  0  0  0  0
  5  6  2  0  0  0  0
  6  7  1  0  0  0  0
  7  8  2  0  0  0  0
  3  8  1  0  0  0  0
  8  9  1  0  0  0  0
  9 10  1  0  0  0  0
 10 11  1  0  0  0  0
 11 12  2  0  0  0  0
 12 13  1  0  0  0  0
 12 14  1  0  0  0  0
 14 15  1  0  0  0  0
 15 16  2  0  0  0  0
 16 17  1  0  0  0  0
 17 18  2  0  0  0  0
 18 19  1  0  0  0  0
 15 19  1  0  0  0  0
 17 20  1  0  0  0  0
 20 21  2  0  0  0  0
 21 22  1  0  0  0  0
 22 23  2  0  0  0  0
 23 24  1  0  0  0  0
 24 25  1  0  0  0  0
 25 26  1  0  0  0  0
 26 27  1  0  0  0  0
 27 28  2  0  0  0  0
 27 29  1  0  0  0  0
 24 30  2  0  0  0  0
 20 30  1  0  0  0  0
M  END
> <Molecule Name>
CHEMBL324525

> <IUPAC>
N-{[3-(2-{N'-[2-(2-methoxyphenyl)ethyl]carbamimidamido}-1,3-thiazol-4-yl)phenyl]methyl}acetamide

> <ChEMBL_Data_Neisseria_g: NUM_RO5_VIOLATIONS>
0

> <ChEMBL_Data_Neisseria_g: Qualifier_for_MIC_Ng>
>

> <ChEMBL_Data_Neisseria_g: ASSAY_CHEMBLID>
CHEMBL750220

> <ChEMBL_Data_Neisseria_g: DESCRIPTION_of_Assay_Ng>
Antimicrobial activity was measured against Neisseria gonorrhoeae organism

> <ChEMBL_Data_Neisseria_g: PUBMED_ID>
10966750

> <ChEMBL_Data_Neisseria_g: YEAR>
2000

> <ChEMBL_Data_Neisseria_g: JOURNAL>
J. Med. Chem.

> <ChEMBL_Data_Neisseria_g: VOLUME>
43

> <ChEMBL_Data_Neisseria_g: FIRST_PAGE>
3315

> <ChEMBL_Data_Neisseria_g: MIC_vs_Neisseria_microg_per_mL>
100

> <ALogP>
2.96

> <Active>
0

> <Molecular_Weight>
423.531

$$$$

Generated by Molecular Materials Informatics

 29 31  0  0  0  0  0  0  0  0999 V2000
   -2.3838    5.3395    0.0000 C   0  0  0  0  0  0  0  0  0  0  0  0
   -1.0847    6.0895    0.0000 C   0  0  0  0  0  0  0  0  0  0  0  0
    0.2143    5.3395    0.0000 O   0  0  0  0  0  0  0  0  0  0  0  0
    1.5132    6.0895    0.0000 C   0  0  0  0  0  0  0  0  0  0  0  0
    1.5132    7.5894    0.0000 C   0  0  0  0  0  0  0  0  0  0  0  0
    2.8122    8.3394    0.0000 C   0  0  0  0  0  0  0  0  0  0  0  0
    4.1113    7.5894    0.0000 C   0  0  0  0  0  0  0  0  0  0  0  0
    4.1113    6.0895    0.0000 C   0  0  0  0  0  0  0  0  0  0  0  0
    2.8122    5.3395    0.0000 C   0  0  0  0  0  0  0  0  0  0  0  0
    2.8122    3.8396    0.0000 C   0  0  0  0  0  0  0  0  0  0  0  0
    4.1113    3.0896    0.0000 N   0  0  0  0  0  0  0  0  0  0  0  0
    4.1113    1.5896    0.0000 C   0  0  0  0  0  0  0  0  0  0  0  0
    2.8122    0.8396    0.0000 N   0  0  0  0  0  0  0  0  0  0  0  0
    5.4103    0.8396    0.0000 N   0  0  0  0  0  0  0  0  0  0  0  0
    5.4103   -0.6603    0.0000 C   0  0  0  0  0  0  0  0  0  0  0  0
    6.6238   -1.5419    0.0000 N   0  0  0  0  0  0  0  0  0  0  0  0
    6.1603   -2.9686    0.0000 C   0  0  0  0  0  0  0  0  0  0  0  0
    4.6604   -2.9686    0.0000 C   0  0  0  0  0  0  0  0  0  0  0  0
    4.1967   -1.5419    0.0000 S   0  0  0  0  0  0  0  0  0  0  0  0
    7.0419   -4.1820    0.0000 C   0  0  0  0  0  0  0  0  0  0  0  0
    8.5419   -4.1820    0.0000 O   0  0  0  0  0  0  0  0  0  0  0  0
    9.0053   -5.6085    0.0000 C   0  0  0  0  0  0  0  0  0  0  0  0
   10.4318   -6.0721    0.0000 C   0  0  0  0  0  0  0  0  0  0  0  0
   11.5465   -5.0684    0.0000 N   0  0  0  0  0  0  0  0  0  0  0  0
   12.9732   -5.5320    0.0000 C   0  0  0  0  0  0  0  0  0  0  0  0
   14.0879   -4.5282    0.0000 O   0  0  0  0  0  0  0  0  0  0  0  0
   13.2850   -6.9990    0.0000 C   0  0  0  0  0  0  0  0  0  0  0  0
    7.7919   -6.4901    0.0000 C   0  0  0  0  0  0  0  0  0  0  0  0
    6.5783   -5.6085    0.0000 C   0  0  0  0  0  0  0  0  0  0  0  0
  1  2  1  0  0  0  0
  2  3  1  0  0  0  0
  3  4  1  0  0  0  0
  4  5  2  0  0  0  0
  5  6  1  0  0  0  0
  6  7  2  0  0  0  0
  7  8  1  0  0  0  0
  8  9  2  0  0  0  0
  4  9  1  0  0  0  0
  9 10  1  0  0  0  0
 10 11  1  0  0  0  0
 11 12  2  0  0  0  0
 12 13  1  0  0  0  0
 12 14  1  0  0  0  0
 14 15  1  0  0  0  0
 15 16  2  0  0  0  0
 16 17  1  0  0  0  0
 17 18  2  0  0  0  0
 18 19  1  0  0  0  0
 15 19  1  0  0  0  0
 17 20  1  0  0  0  0
 20 21  1  0  0  0  0
 21 22  1  0  0  0  0
 22 23  1  0  0  0  0
 23 24  1  0  0  0  0
 24 25  1  0  0  0  0
 25 26  2  0  0  0  0
 25 27  1  0  0  0  0
 22 28  2  0  0  0  0
 28 29  1  0  0  0  0
 20 29  2  0  0  0  0
M  END
> <Molecule Name>
CHEMBL323568

> <IUPAC>
N-{[5-(2-{N'-[(2-ethoxyphenyl)methyl]carbamimidamido}-1,3-thiazol-4-yl)furan-2-yl]methyl}acetamide

> <ChEMBL_Data_Neisseria_g: NUM_RO5_VIOLATIONS>
0

> <ChEMBL_Data_Neisseria_g: Qualifier_for_MIC_Ng>
>

> <ChEMBL_Data_Neisseria_g: ASSAY_CHEMBLID>
CHEMBL750240

> <ChEMBL_Data_Neisseria_g: DESCRIPTION_of_Assay_Ng>
Antimicrobial activity against Neisseria gonorrhoeae

> <ChEMBL_Data_Neisseria_g: PUBMED_ID>
10425101

> <ChEMBL_Data_Neisseria_g: YEAR>
1999

> <ChEMBL_Data_Neisseria_g: JOURNAL>
J. Med. Chem.

> <ChEMBL_Data_Neisseria_g: VOLUME>
42

> <ChEMBL_Data_Neisseria_g: FIRST_PAGE>
2920

> <ChEMBL_Data_Neisseria_g: MIC_vs_Neisseria_microg_per_mL>
100

> <ALogP>
2.461

> <Active>
0

> <Molecular_Weight>
413.493

$$$$

Generated by Molecular Materials Informatics

 18 19  0  0  0  0  0  0  0  0999 V2000
    1.7211    2.5311    0.0000 C   0  0  0  0  0  0  0  0  0  0  0  0
    3.0202    1.7811    0.0000 O   0  0  0  0  0  0  0  0  0  0  0  0
    3.0202    0.2811    0.0000 C   0  0  0  0  0  0  0  0  0  0  0  0
    4.3192   -0.4688    0.0000 C   0  0  0  0  0  0  0  0  0  0  0  0
    4.3192   -1.9688    0.0000 C   0  0  0  0  0  0  0  0  0  0  0  0
    3.0202   -2.7188    0.0000 C   0  0  0  0  0  0  0  0  0  0  0  0
    1.7211   -1.9688    0.0000 C   0  0  0  0  0  0  0  0  0  0  0  0
    1.7211   -0.4688    0.0000 C   0  0  0  0  0  0  0  0  0  0  0  0
    3.0202   -4.2187    0.0000 C   0  0  0  0  0  0  0  0  0  0  0  0
    4.3192   -4.9687    0.0000 O   0  0  0  0  0  0  0  0  0  0  0  0
    1.7211   -4.9687    0.0000 C   0  0  0  0  0  0  0  0  0  0  0  0
    1.7211   -6.4686    0.0000 C   0  0  0  0  0  0  0  0  0  0  0  0
    0.4223   -7.2186    0.0000 C   0  0  0  0  0  0  0  0  0  0  0  0
    0.4223   -8.7186    0.0000 O   0  0  0  0  0  0  0  0  0  0  0  0
   -0.8768   -6.4686    0.0000 C   0  0  0  0  0  0  0  0  0  0  0  0
   -0.8768   -4.9687    0.0000 C   0  0  0  0  0  0  0  0  0  0  0  0
   -2.1758   -4.2187    0.0000 O   0  0  0  0  0  0  0  0  0  0  0  0
    0.4223   -4.2187    0.0000 C   0  0  0  0  0  0  0  0  0  0  0  0
  1  2  1  0  0  0  0
  2  3  1  0  0  0  0
  3  4  2  0  0  0  0
  4  5  1  0  0  0  0
  5  6  2  0  0  0  0
  6  7  1  0  0  0  0
  7  8  2  0  0  0  0
  3  8  1  0  0  0  0
  6  9  1  0  0  0  0
  9 10  2  0  0  0  0
  9 11  1  0  0  0  0
 11 12  2  0  0  0  0
 12 13  1  0  0  0  0
 13 14  1  0  0  0  0
 13 15  2  0  0  0  0
 15 16  1  0  0  0  0
 16 17  1  0  0  0  0
 16 18  2  0  0  0  0
 11 18  1  0  0  0  0
M  END
> <Molecule Name>
CHEMBL315489

> <IUPAC>
5-(4-methoxybenzoyl)benzene-1,3-diol

> <ChEMBL_Data_Neisseria_g: NUM_RO5_VIOLATIONS>
0

> <ChEMBL_Data_Neisseria_g: Qualifier_for_MIC_Ng>
>

> <ChEMBL_Data_Neisseria_g: ASSAY_CHEMBLID>
CHEMBL754227

> <ChEMBL_Data_Neisseria_g: DESCRIPTION_of_Assay_Ng>
The minimum inhibitory concentration (MIC) that inhibits all visible growth of the Neisseria gonorrhoeae (bacteria) at 64 ug/ml

> <ChEMBL_Data_Neisseria_g: PUBMED_ID>
12036362

> <ChEMBL_Data_Neisseria_g: YEAR>
2002

> <ChEMBL_Data_Neisseria_g: JOURNAL>
J. Med. Chem.

> <ChEMBL_Data_Neisseria_g: VOLUME>
45

> <ChEMBL_Data_Neisseria_g: FIRST_PAGE>
2534

> <ChEMBL_Data_Neisseria_g: MIC_vs_Neisseria_microg_per_mL>
64

> <ALogP>
2.733

> <Active>
0

> <Molecular_Weight>
244.243

$$$$

Generated by Molecular Materials Informatics

 19 20  0  0  0  0  0  0  0  0999 V2000
    4.6115    1.5187    0.0000 C   0  0  0  0  0  0  0  0  0  0  0  0
    3.3125    0.7687    0.0000 O   0  0  0  0  0  0  0  0  0  0  0  0
    3.3125   -0.7313    0.0000 C   0  0  0  0  0  0  0  0  0  0  0  0
    4.6115   -1.4813    0.0000 C   0  0  0  0  0  0  0  0  0  0  0  0
    4.6115   -2.9812    0.0000 C   0  0  0  0  0  0  0  0  0  0  0  0
    5.9106   -3.7312    0.0000 O   0  0  0  0  0  0  0  0  0  0  0  0
    5.9106   -5.2312    0.0000 C   0  0  0  0  0  0  0  0  0  0  0  0
    3.3125   -3.7312    0.0000 C   0  0  0  0  0  0  0  0  0  0  0  0
    2.0134   -2.9812    0.0000 C   0  0  0  0  0  0  0  0  0  0  0  0
    2.0134   -1.4813    0.0000 C   0  0  0  0  0  0  0  0  0  0  0  0
    0.7145   -3.7312    0.0000 C   0  0  0  0  0  0  0  0  0  0  0  0
    0.7145   -5.2312    0.0000 O   0  0  0  0  0  0  0  0  0  0  0  0
   -0.5846   -2.9812    0.0000 C   0  0  0  0  0  0  0  0  0  0  0  0
   -1.8836   -3.7312    0.0000 C   0  0  0  0  0  0  0  0  0  0  0  0
   -3.1825   -2.9812    0.0000 C   0  0  0  0  0  0  0  0  0  0  0  0
   -3.1825   -1.4813    0.0000 C   0  0  0  0  0  0  0  0  0  0  0  0
   -4.4816   -0.7313    0.0000 O   0  0  0  0  0  0  0  0  0  0  0  0
   -1.8836   -0.7313    0.0000 C   0  0  0  0  0  0  0  0  0  0  0  0
   -0.5846   -1.4813    0.0000 C   0  0  0  0  0  0  0  0  0  0  0  0
  1  2  1  0  0  0  0
  2  3  1  0  0  0  0
  3  4  2  0  0  0  0
  4  5  1  0  0  0  0
  5  6  1  0  0  0  0
  6  7  1  0  0  0  0
  5  8  2  0  0  0  0
  8  9  1  0  0  0  0
  9 10  2  0  0  0  0
  3 10  1  0  0  0  0
  9 11  1  0  0  0  0
 11 12  2  0  0  0  0
 11 13  1  0  0  0  0
 13 14  2  0  0  0  0
 14 15  1  0  0  0  0
 15 16  2  0  0  0  0
 16 17  1  0  0  0  0
 16 18  1  0  0  0  0
 18 19  2  0  0  0  0
 13 19  1  0  0  0  0
M  END
> <Molecule Name>
CHEMBL314485

> <IUPAC>
4-(3,5-dimethoxybenzoyl)phenol

> <ChEMBL_Data_Neisseria_g: NUM_RO5_VIOLATIONS>
0

> <ChEMBL_Data_Neisseria_g: Qualifier_for_MIC_Ng>
=

> <ChEMBL_Data_Neisseria_g: ASSAY_CHEMBLID>
CHEMBL754229

> <ChEMBL_Data_Neisseria_g: DESCRIPTION_of_Assay_Ng>
The minimum inhibitory concentration (MIC) that inhibits all visible growth of the Neisseria gonorrhoeae (bacteria); value may ranges from (32 - 64)

> <ChEMBL_Data_Neisseria_g: PUBMED_ID>
12036362

> <ChEMBL_Data_Neisseria_g: YEAR>
2002

> <ChEMBL_Data_Neisseria_g: JOURNAL>
J. Med. Chem.

> <ChEMBL_Data_Neisseria_g: VOLUME>
45

> <ChEMBL_Data_Neisseria_g: FIRST_PAGE>
2534

> <ChEMBL_Data_Neisseria_g: MIC_vs_Neisseria_microg_per_mL>
64

> <ALogP>
2.959

> <Active>
0

> <Molecular_Weight>
258.269

$$$$

Generated by Molecular Materials Informatics

 18 19  0  0  0  0  0  0  0  0999 V2000
    2.7279    2.9249    0.0000 C   0  0  0  0  0  0  0  0  0  0  0  0
    4.0270    2.1749    0.0000 O   0  0  0  0  0  0  0  0  0  0  0  0
    4.0270    0.6750    0.0000 C   0  0  0  0  0  0  0  0  0  0  0  0
    5.3260   -0.0750    0.0000 C   0  0  0  0  0  0  0  0  0  0  0  0
    5.3260   -1.5750    0.0000 C   0  0  0  0  0  0  0  0  0  0  0  0
    4.0270   -2.3250    0.0000 C   0  0  0  0  0  0  0  0  0  0  0  0
    4.0270   -3.8249    0.0000 C   0  0  0  0  0  0  0  0  0  0  0  0
    2.7279   -4.5749    0.0000 C   0  0  0  0  0  0  0  0  0  0  0  0
    1.4289   -3.8249    0.0000 C   0  0  0  0  0  0  0  0  0  0  0  0
    0.1300   -4.5749    0.0000 C   0  0  0  0  0  0  0  0  0  0  0  0
   -1.1691   -3.8249    0.0000 C   0  0  0  0  0  0  0  0  0  0  0  0
   -2.4681   -4.5749    0.0000 O   0  0  0  0  0  0  0  0  0  0  0  0
   -1.1691   -2.3250    0.0000 C   0  0  0  0  0  0  0  0  0  0  0  0
    0.1300   -1.5750    0.0000 C   0  0  0  0  0  0  0  0  0  0  0  0
    0.1300   -0.0750    0.0000 O   0  0  0  0  0  0  0  0  0  0  0  0
    1.4289   -2.3250    0.0000 C   0  0  0  0  0  0  0  0  0  0  0  0
    2.7279   -1.5750    0.0000 C   0  0  0  0  0  0  0  0  0  0  0  0
    2.7279   -0.0750    0.0000 C   0  0  0  0  0  0  0  0  0  0  0  0
  1  2  1  0  0  0  0
  2  3  1  0  0  0  0
  3  4  2  0  0  0  0
  4  5  1  0  0  0  0
  5  6  2  0  0  0  0
  6  7  1  0  0  0  0
  7  8  2  0  0  0  0
  8  9  1  0  0  0  0
  9 10  2  0  0  0  0
 10 11  1  0  0  0  0
 11 12  1  0  0  0  0
 11 13  2  0  0  0  0
 13 14  1  0  0  0  0
 14 15  1  0  0  0  0
 14 16  2  0  0  0  0
  9 16  1  0  0  0  0
  6 17  1  0  0  0  0
 17 18  2  0  0  0  0
  3 18  1  0  0  0  0
M  END
> <Molecule Name>
CHEMBL313687

> <IUPAC>
5-[(Z)-2-(4-methoxyphenyl)ethenyl]benzene-1,3-diol

> <ChEMBL_Data_Neisseria_g: NUM_RO5_VIOLATIONS>
0

> <ChEMBL_Data_Neisseria_g: Qualifier_for_MIC_Ng>
=

> <ChEMBL_Data_Neisseria_g: ASSAY_CHEMBLID>
CHEMBL753617

> <ChEMBL_Data_Neisseria_g: DESCRIPTION_of_Assay_Ng>
The minimum inhibitory concentration (MIC) that inhibits all visible growth of the Neisseria gonorrhoeae (bacteria)

> <ChEMBL_Data_Neisseria_g: PUBMED_ID>
12036362

> <ChEMBL_Data_Neisseria_g: YEAR>
2002

> <ChEMBL_Data_Neisseria_g: JOURNAL>
J. Med. Chem.

> <ChEMBL_Data_Neisseria_g: VOLUME>
45

> <ChEMBL_Data_Neisseria_g: FIRST_PAGE>
2534

> <ChEMBL_Data_Neisseria_g: MIC_vs_Neisseria_microg_per_mL>
16

> <ALogP>
3.315

> <Active>
0

> <Molecular_Weight>
242.27

$$$$

Generated by Molecular Materials Informatics

 20 21  0  0  0  0  0  0  0  0999 V2000
    2.7279    3.2625    0.0000 C   0  0  0  0  0  0  0  0  0  0  0  0
    4.0270    2.5125    0.0000 O   0  0  0  0  0  0  0  0  0  0  0  0
    4.0270    1.0125    0.0000 C   0  0  0  0  0  0  0  0  0  0  0  0
    5.3261    0.2625    0.0000 C   0  0  0  0  0  0  0  0  0  0  0  0
    5.3261   -1.2375    0.0000 C   0  0  0  0  0  0  0  0  0  0  0  0
    4.0270   -1.9875    0.0000 C   0  0  0  0  0  0  0  0  0  0  0  0
    4.0270   -3.4875    0.0000 C   0  0  0  0  0  0  0  0  0  0  0  0
    2.7279   -4.2375    0.0000 C   0  0  0  0  0  0  0  0  0  0  0  0
    1.4289   -3.4875    0.0000 C   0  0  0  0  0  0  0  0  0  0  0  0
    0.1300   -4.2375    0.0000 C   0  0  0  0  0  0  0  0  0  0  0  0
   -1.1691   -3.4875    0.0000 C   0  0  0  0  0  0  0  0  0  0  0  0
   -2.4682   -4.2375    0.0000 O   0  0  0  0  0  0  0  0  0  0  0  0
   -2.4682   -5.7375    0.0000 C   0  0  0  0  0  0  0  0  0  0  0  0
   -1.1691   -1.9875    0.0000 C   0  0  0  0  0  0  0  0  0  0  0  0
    0.1300   -1.2375    0.0000 C   0  0  0  0  0  0  0  0  0  0  0  0
    0.1300    0.2625    0.0000 O   0  0  0  0  0  0  0  0  0  0  0  0
    1.4289    1.0125    0.0000 C   0  0  0  0  0  0  0  0  0  0  0  0
    1.4289   -1.9875    0.0000 C   0  0  0  0  0  0  0  0  0  0  0  0
    2.7279   -1.2375    0.0000 C   0  0  0  0  0  0  0  0  0  0  0  0
    2.7279    0.2625    0.0000 C   0  0  0  0  0  0  0  0  0  0  0  0
  1  2  1  0  0  0  0
  2  3  1  0  0  0  0
  3  4  2  0  0  0  0
  4  5  1  0  0  0  0
  5  6  2  0  0  0  0
  6  7  1  0  0  0  0
  7  8  2  0  0  0  0
  8  9  1  0  0  0  0
  9 10  2  0  0  0  0
 10 11  1  0  0  0  0
 11 12  1  0  0  0  0
 12 13  1  0  0  0  0
 11 14  2  0  0  0  0
 14 15  1  0  0  0  0
 15 16  1  0  0  0  0
 16 17  1  0  0  0  0
 15 18  2  0  0  0  0
  9 18  1  0  0  0  0
  6 19  1  0  0  0  0
 19 20  2  0  0  0  0
  3 20  1  0  0  0  0
M  END
> <Molecule Name>
CHEMBL311636

> <IUPAC>
1,3-dimethoxy-5-[(Z)-2-(4-methoxyphenyl)ethenyl]benzene

> <ChEMBL_Data_Neisseria_g: Molecule_Preferred_NAME>
8Z-3,4',5-TRIMETHOXYSTILBENE

> <ChEMBL_Data_Neisseria_g: NUM_RO5_VIOLATIONS>
0

> <ChEMBL_Data_Neisseria_g: Qualifier_for_MIC_Ng>
>

> <ChEMBL_Data_Neisseria_g: ASSAY_CHEMBLID>
CHEMBL754226

> <ChEMBL_Data_Neisseria_g: DESCRIPTION_of_Assay_Ng>
The minimum inhibitory concentration (MIC) that inhibits all visible growth of the Neisseria gonorrhoeae (bacteria) 64 ug/ml

> <ChEMBL_Data_Neisseria_g: PUBMED_ID>
12036362

> <ChEMBL_Data_Neisseria_g: YEAR>
2002

> <ChEMBL_Data_Neisseria_g: JOURNAL>
J. Med. Chem.

> <ChEMBL_Data_Neisseria_g: VOLUME>
45

> <ChEMBL_Data_Neisseria_g: FIRST_PAGE>
2534

> <ChEMBL_Data_Neisseria_g: MIC_vs_Neisseria_microg_per_mL>
64

> <ALogP>
3.766

> <Active>
0

> <Molecular_Weight>
270.323

$$$$

Generated by Molecular Materials Informatics

 14 14  0  0  0  0  0  0  0  0999 V2000
   -1.1691    4.4999    0.0000 C   0  0  0  0  0  0  0  0  0  0  0  0
    0.1300    3.7499    0.0000 O   0  0  0  0  0  0  0  0  0  0  0  0
    0.1300    2.2500    0.0000 C   0  0  0  0  0  0  0  0  0  0  0  0
    1.4289    1.5000    0.0000 C   0  0  0  0  0  0  0  0  0  0  0  0
    1.4289    0.0000    0.0000 C   0  0  0  0  0  0  0  0  0  0  0  0
    2.7279   -0.7500    0.0000 C   0  0  0  0  0  0  0  0  0  0  0  0
    2.7279   -2.2500    0.0000 C   0  0  0  0  0  0  0  0  0  0  0  0
    4.0270   -3.0000    0.0000 N   0  4  0  0  0  0  0  0  0  0  0  0
    5.3261   -2.2500    0.0000 O   0  0  0  0  0  0  0  0  0  0  0  0
    4.0270   -4.4999    0.0000 O   0  5  0  0  0  0  0  0  0  0  0  0
    0.1300   -0.7500    0.0000 C   0  0  0  0  0  0  0  0  0  0  0  0
   -1.1691    0.0000    0.0000 C   0  0  0  0  0  0  0  0  0  0  0  0
   -1.1691    1.5000    0.0000 C   0  0  0  0  0  0  0  0  0  0  0  0
   -2.4682    2.2500    0.0000 O   0  0  0  0  0  0  0  0  0  0  0  0
  1  2  1  0  0  0  0
  2  3  1  0  0  0  0
  3  4  2  0  0  0  0
  4  5  1  0  0  0  0
  5  6  1  0  0  0  0
  6  7  2  0  0  0  0
  7  8  1  0  0  0  0
  8  9  2  0  0  0  0
  8 10  1  0  0  0  0
  5 11  2  0  0  0  0
 11 12  1  0  0  0  0
 12 13  2  0  0  0  0
  3 13  1  0  0  0  0
 13 14  1  0  0  0  0
M  CHG  1  10  -1
M  RAD  1   8   2
M  END
> <Molecule Name>
CHEMBL309016

> <IUPAC>
{hydroxy[(E)-2-(4-hydroxy-3-methoxyphenyl)ethenyl]amino}oxidanyl

> <ChEMBL_Data_Neisseria_g: NUM_RO5_VIOLATIONS>
0

> <ChEMBL_Data_Neisseria_g: Qualifier_for_MIC_Ng>
=

> <ChEMBL_Data_Neisseria_g: ASSAY_CHEMBLID>
CHEMBL1073951

> <ChEMBL_Data_Neisseria_g: DESCRIPTION_of_Assay_Ng>
Antimicrobial activity against Neisseria gonorrhoeae ATCC 49226 by broth microdilution susceptibility assay

> <ChEMBL_Data_Neisseria_g: PUBMED_ID>
19709889

> <ChEMBL_Data_Neisseria_g: YEAR>
2009

> <ChEMBL_Data_Neisseria_g: JOURNAL>
Bioorg. Med. Chem.

> <ChEMBL_Data_Neisseria_g: VOLUME>
17

> <ChEMBL_Data_Neisseria_g: FIRST_PAGE>
6606

> <ChEMBL_Data_Neisseria_g: MIC_vs_Neisseria_microg_per_mL>
4

> <ALogP>
1.551

> <Active>
1

> <Molecular_Weight>
195.172

> <ChEMBL_Data_Neisseria_g: STRAIN_of_Ng>
ATCC 49226

$$$$

Generated by Molecular Materials Informatics

 12 12  0  0  0  0  0  0  0  0999 V2000
    1.0068    4.0875    0.0000 O   0  0  0  0  0  0  0  0  0  0  0  0
    1.0068    2.5875    0.0000 C   0  0  0  0  0  0  0  0  0  0  0  0
    2.3057    1.8375    0.0000 C   0  0  0  0  0  0  0  0  0  0  0  0
    2.3057    0.3375    0.0000 C   0  0  0  0  0  0  0  0  0  0  0  0
    1.0068   -0.4125    0.0000 C   0  0  0  0  0  0  0  0  0  0  0  0
    1.0068   -1.9125    0.0000 C   0  0  0  0  0  0  0  0  0  0  0  0
   -0.2923   -2.6625    0.0000 C   0  0  0  0  0  0  0  0  0  0  0  0
   -0.2923   -4.1625    0.0000 N   0  4  0  0  0  0  0  0  0  0  0  0
    1.0068   -4.9125    0.0000 O   0  0  0  0  0  0  0  0  0  0  0  0
   -1.5913   -4.9125    0.0000 O   0  5  0  0  0  0  0  0  0  0  0  0
   -0.2923    0.3375    0.0000 C   0  0  0  0  0  0  0  0  0  0  0  0
   -0.2923    1.8375    0.0000 C   0  0  0  0  0  0  0  0  0  0  0  0
  1  2  1  0  0  0  0
  2  3  2  0  0  0  0
  3  4  1  0  0  0  0
  4  5  2  0  0  0  0
  5  6  1  0  0  0  0
  6  7  2  0  0  0  0
  7  8  1  0  0  0  0
  8  9  2  0  0  0  0
  8 10  1  0  0  0  0
  5 11  1  0  0  0  0
 11 12  2  0  0  0  0
  2 12  1  0  0  0  0
M  CHG  1  10  -1
M  RAD  1   8   2
M  END
> <Molecule Name>
CHEMBL307481

> <IUPAC>
{hydroxy[(E)-2-(4-hydroxyphenyl)ethenyl]amino}oxidanyl

> <ChEMBL_Data_Neisseria_g: NUM_RO5_VIOLATIONS>
0

> <ChEMBL_Data_Neisseria_g: Qualifier_for_MIC_Ng>
=

> <ChEMBL_Data_Neisseria_g: ASSAY_CHEMBLID>
CHEMBL1073951

> <ChEMBL_Data_Neisseria_g: DESCRIPTION_of_Assay_Ng>
Antimicrobial activity against Neisseria gonorrhoeae ATCC 49226 by broth microdilution susceptibility assay

> <ChEMBL_Data_Neisseria_g: PUBMED_ID>
19709889

> <ChEMBL_Data_Neisseria_g: YEAR>
2009

> <ChEMBL_Data_Neisseria_g: JOURNAL>
Bioorg. Med. Chem.

> <ChEMBL_Data_Neisseria_g: VOLUME>
17

> <ChEMBL_Data_Neisseria_g: FIRST_PAGE>
6606

> <ChEMBL_Data_Neisseria_g: MIC_vs_Neisseria_microg_per_mL>
4

> <ALogP>
1.568

> <Active>
1

> <Molecular_Weight>
165.146

> <ChEMBL_Data_Neisseria_g: STRAIN_of_Ng>
ATCC 49226

$$$$

Generated by Molecular Materials Informatics

 17 19  0  0  0  0  0  0  0  0999 V2000
    3.1502   -5.8124    0.0000 C   0  0  0  0  0  0  0  0  0  0  0  0
    1.8511   -5.0624    0.0000 O   0  0  0  0  0  0  0  0  0  0  0  0
    1.8511   -3.5625    0.0000 C   0  0  0  0  0  0  0  0  0  0  0  0
    0.5521   -2.8125    0.0000 C   0  0  0  0  0  0  0  0  0  0  0  0
    0.5521   -1.3125    0.0000 C   0  0  0  0  0  0  0  0  0  0  0  0
   -0.7468   -0.5625    0.0000 C   0  0  0  0  0  0  0  0  0  0  0  0
   -0.7468    0.9374    0.0000 C   0  0  0  0  0  0  0  0  0  0  0  0
    0.5521    1.6874    0.0000 N   0  0  0  0  0  0  0  0  0  0  0  0
    1.8511    0.9374    0.0000 C   0  0  0  0  0  0  0  0  0  0  0  0
    3.1502    1.6874    0.0000 C   0  0  0  0  0  0  0  0  0  0  0  0
    4.4492    0.9374    0.0000 C   0  0  0  0  0  0  0  0  0  0  0  0
    4.4492   -0.5625    0.0000 N   0  0  0  0  0  0  0  0  0  0  0  0
    5.7481   -1.3125    0.0000 C   0  0  0  0  0  0  0  0  0  0  0  0
    3.1502   -1.3125    0.0000 C   0  0  0  0  0  0  0  0  0  0  0  0
    3.1502   -2.8125    0.0000 C   0  0  0  0  0  0  0  0  0  0  0  0
    4.4492   -3.5625    0.0000 O   0  0  0  0  0  0  0  0  0  0  0  0
    1.8511   -0.5625    0.0000 C   0  0  0  0  0  0  0  0  0  0  0  0
  1  2  1  0  0  0  0
  2  3  1  0  0  0  0
  3  4  1  0  0  0  0
  4  5  2  0  0  0  0
  5  6  1  0  0  0  0
  6  7  2  0  0  0  0
  7  8  1  0  0  0  0
  8  9  2  0  0  0  0
  9 10  1  0  0  0  0
 10 11  2  0  0  0  0
 11 12  1  0  0  0  0
 12 13  1  0  0  0  0
 12 14  1  0  0  0  0
 14 15  1  0  0  0  0
  3 15  2  0  0  0  0
 15 16  1  0  0  0  0
 14 17  2  0  0  0  0
  5 17  1  0  0  0  0
  9 17  1  0  0  0  0
M  END
> <Molecule Name>
CHEMBL301307

> <IUPAC>
11-methoxy-2-methyl-2,6-diazatricyclo[7.3.1.0,]trideca-1(13),3,5,7,9,11-hexaen-12-ol

> <ChEMBL_Data_Neisseria_g: Molecule_Preferred_NAME>
ISOAAPTAMINE

> <ChEMBL_Data_Neisseria_g: NUM_RO5_VIOLATIONS>
0

> <ChEMBL_Data_Neisseria_g: Qualifier_for_MIC_Ng>
<

> <ChEMBL_Data_Neisseria_g: ASSAY_CHEMBLID>
CHEMBL1014115

> <ChEMBL_Data_Neisseria_g: DESCRIPTION_of_Assay_Ng>
Antimicrobial activity against Neisseria gonorrhoeae by broth microdilution susceptibility assay

> <ChEMBL_Data_Neisseria_g: PUBMED_ID>
15043446

> <ChEMBL_Data_Neisseria_g: YEAR>
2004

> <ChEMBL_Data_Neisseria_g: JOURNAL>
J. Nat. Prod.

> <ChEMBL_Data_Neisseria_g: VOLUME>
67

> <ChEMBL_Data_Neisseria_g: FIRST_PAGE>
506

> <ChEMBL_Data_Neisseria_g: MIC_vs_Neisseria_microg_per_mL>
0.5

> <ALogP>
1.608

> <Active>
1

> <Molecular_Weight>
228.247

$$$$

Generated by Molecular Materials Informatics

 58 63  0  0  0  0  0  0  0  0999 V2000
   -0.2472    7.6276    0.0000 C   0  0  0  0  0  0  0  0  0  0  0  0
   -0.9959    6.3280    0.0000 O   0  0  0  0  0  0  0  0  0  0  0  0
   -0.2447    5.0298    0.0000 C   0  0  0  0  0  0  0  0  0  0  0  0
    1.1436    5.6181    0.0000 C   0  0  0  0  0  0  0  0  0  0  0  0
    2.6487    5.8595    0.0000 C   0  0  0  0  0  0  0  0  0  0  0  0
    4.2032    5.9013    0.0000 O   0  0  0  0  0  0  0  0  0  0  0  0
    5.4585    4.9607    0.0000 C   0  0  0  0  0  0  0  0  0  0  0  0
    6.9555    4.8694    0.0000 C   0  0  0  0  0  0  0  0  0  0  0  0
    4.1583    4.2135    0.0000 O   0  0  0  0  0  0  0  0  0  0  0  0
    4.3339    2.7358    0.0000 C   0  0  0  0  0  0  0  0  0  0  0  0
    3.2643    1.6440    0.0000 C   0  0  0  0  0  0  0  0  0  0  0  0
    1.8019    1.9771    0.0000 C   0  0  0  0  0  0  0  0  0  0  0  0
    3.7461    0.2239    0.0000 C   0  0  0  0  0  0  0  0  0  0  0  0
    2.7418   -0.8902    0.0000 O   0  0  0  0  0  0  0  0  0  0  0  0
    5.2291   -0.1133    0.0000 C   0  0  0  0  0  0  0  0  0  0  0  0
    5.6496   -1.5637    0.0000 C   0  0  0  0  0  0  0  0  0  0  0  0
    4.5721   -2.6071    0.0000 O   0  0  0  0  0  0  0  0  0  0  0  0
    7.0722   -2.0263    0.0000 C   0  0  0  0  0  0  0  0  0  0  0  0
    6.5252   -3.4994    0.0000 N   0  0  0  0  0  0  0  0  0  0  0  0
    5.5822   -4.7217    0.0000 C   0  0  0  0  0  0  0  0  0  0  0  0
    6.5570   -5.8618    0.0000 O   0  0  0  0  0  0  0  0  0  0  0  0
    4.1879   -5.4858    0.0000 C   0  0  0  0  0  0  0  0  0  0  0  0
    2.6304   -5.7527    0.0000 C   0  0  0  0  0  0  0  0  0  0  0  0
    1.0336   -5.5553    0.0000 C   0  0  0  0  0  0  0  0  0  0  0  0
   -0.3534   -4.9631    0.0000 C   0  0  0  0  0  0  0  0  0  0  0  0
   -1.5404   -4.0297    0.0000 C   0  0  0  0  0  0  0  0  0  0  0  0
   -2.6140   -5.0769    0.0000 C   0  0  0  0  0  0  0  0  0  0  0  0
   -2.4416   -2.8231    0.0000 C   0  0  0  0  0  0  0  0  0  0  0  0
   -3.7501   -3.5561    0.0000 O   0  0  0  0  0  0  0  0  0  0  0  0
   -2.9998   -1.4243    0.0000 C   0  0  0  0  0  0  0  0  0  0  0  0
   -4.4535   -1.7937    0.0000 C   0  0  0  0  0  0  0  0  0  0  0  0
   -3.1768    0.0712    0.0000 C   0  0  0  0  0  0  0  0  0  0  0  0
   -4.6767    0.0907    0.0000 O   0  0  0  0  0  0  0  0  0  0  0  0
   -2.9610    1.5613    0.0000 C   0  0  0  0  0  0  0  0  0  0  0  0
   -4.4047    1.9680    0.0000 C   0  0  0  0  0  0  0  0  0  0  0  0
   -2.3678    2.9441    0.0000 C   0  0  0  0  0  0  0  0  0  0  0  0
   -3.6573    3.7097    0.0000 O   0  0  0  0  0  0  0  0  0  0  0  0
   -4.9654    2.9757    0.0000 C   0  0  0  0  0  0  0  0  0  0  0  0
   -6.2551    3.7415    0.0000 O   0  0  0  0  0  0  0  0  0  0  0  0
   -4.9836    1.4759    0.0000 C   0  0  0  0  0  0  0  0  0  0  0  0
   -1.4397    4.1246    0.0000 C   0  0  0  0  0  0  0  0  0  0  0  0
   -2.4907    5.1947    0.0000 C   0  0  0  0  0  0  0  0  0  0  0  0
    4.6817   -6.9021    0.0000 C   0  0  0  0  0  0  0  0  0  0  0  0
    8.1123   -0.9089    0.0000 C   0  0  0  0  0  0  0  0  0  0  0  0
    9.6075   -1.0274    0.0000 S   0  0  0  0  0  0  0  0  0  0  0  0
   10.1822    0.3581    0.0000 C   0  0  0  0  0  0  0  0  0  0  0  0
    9.0423    1.3328    0.0000 N   0  0  0  0  0  0  0  0  0  0  0  0
    7.7629    0.5497    0.0000 C   0  0  0  0  0  0  0  0  0  0  0  0
    6.3107    0.9850    0.0000 C   0  0  0  0  0  0  0  0  0  0  0  0
    5.8392    2.4961    0.0000 C   0  0  0  0  0  0  0  0  0  0  0  0
    6.5419    3.8679    0.0000 C   0  0  0  0  0  0  0  0  0  0  0  0
    8.0240    4.0977    0.0000 O   0  0  0  0  0  0  0  0  0  0  0  0
   11.6408    0.7075    0.0000 N   0  0  0  0  0  0  0  0  0  0  0  0
   12.0675    2.1454    0.0000 C   0  0  0  0  0  0  0  0  0  0  0  0
   13.5261    2.4949    0.0000 C   0  0  0  0  0  0  0  0  0  0  0  0
   14.5581    1.4062    0.0000 O   0  0  0  0  0  0  0  0  0  0  0  0
   14.1314   -0.0317    0.0000 C   0  0  0  0  0  0  0  0  0  0  0  0
   12.6727   -0.3811    0.0000 C   0  0  0  0  0  0  0  0  0  0  0  0
  1  2  1  0  0  0  0
  2  3  1  0  0  0  0
  3  4  1  0  0  0  0
  4  5  2  0  0  0  0
  5  6  1  0  0  0  0
  6  7  1  0  0  0  0
  7  8  1  0  0  0  0
  7  9  1  0  0  0  0
  9 10  1  0  0  0  0
 10 11  2  0  0  0  0
 11 12  1  0  0  0  0
 11 13  1  0  0  0  0
 13 14  1  0  0  0  0
 13 15  2  0  0  0  0
 15 16  1  0  0  0  0
 16 17  1  0  0  0  0
 16 18  2  0  0  0  0
 18 19  1  0  0  0  0
 19 20  1  0  0  0  0
 20 21  2  0  0  0  0
 20 22  1  0  0  0  0
 22 23  2  0  0  0  0
 23 24  1  0  0  0  0
 24 25  2  0  0  0  0
 25 26  1  0  0  0  0
 26 27  1  0  0  0  0
 26 28  1  0  0  0  0
 28 29  1  0  0  0  0
 28 30  1  0  0  0  0
 30 31  1  0  0  0  0
 30 32  1  0  0  0  0
 32 33  1  0  0  0  0
 32 34  1  0  0  0  0
 34 35  1  0  0  0  0
 34 36  1  0  0  0  0
 36 37  1  0  0  0  0
 37 38  1  0  0  0  0
 38 39  2  0  0  0  0
 38 40  1  0  0  0  0
 36 41  1  0  0  0  0
  3 41  1  0  0  0  0
 41 42  1  0  0  0  0
 22 43  1  0  0  0  0
 18 44  1  0  0  0  0
 44 45  1  0  0  0  0
 45 46  1  0  0  0  0
 46 47  2  0  0  0  0
 47 48  1  0  0  0  0
 44 48  2  0  0  0  0
 48 49  1  0  0  0  0
 15 49  1  0  0  0  0
 49 50  2  0  0  0  0
 10 50  1  0  0  0  0
 50 51  1  0  0  0  0
  7 51  1  0  0  0  0
 51 52  2  0  0  0  0
 46 53  1  0  0  0  0
 53 54  1  0  0  0  0
 54 55  1  0  0  0  0
 55 56  1  0  0  0  0
 56 57  1  0  0  0  0
 57 58  1  0  0  0  0
 53 58  1  0  0  0  0
M  END
> <Molecule Name>
CHEMBL290791

> <IUPAC>
(9E,19E,21Z)-2,15,17,32-tetrahydroxy-11-methoxy-3,7,12,14,16,18,22-heptamethyl-28-(morpholin-4-yl)-6,23-dioxo-8,33-dioxa-27-thia-24,29-diazapentacyclo[23.6.1.1,.0,.0,]tritriacon
ta-1,3,5(31),9,19,21,25(32),26(30),28-nonaen-13-yl acetate

> <Collections>
Set2_NotListedAsBetaLactamResistant (mostly)
TrainingSet_Kleb_p_ALPerryman_JSF

> <ChEMBL_Data_Neisseria_g: NUM_RO5_VIOLATIONS>
2

> <ChEMBL_Data_Neisseria_g: Qualifier_for_MIC_Ng>
=

> <ChEMBL_Data_Neisseria_g: ASSAY_CHEMBLID>
CHEMBL750222

> <ChEMBL_Data_Neisseria_g: DESCRIPTION_of_Assay_Ng>
In vitro antibacterial activity of compound against Neisseria gonorrhoeae ISM 68/126

> <ChEMBL_Data_Neisseria_g: PUBMED_ID>
2329569

> <ChEMBL_Data_Neisseria_g: YEAR>
1990

> <ChEMBL_Data_Neisseria_g: JOURNAL>
J. Med. Chem.

> <ChEMBL_Data_Neisseria_g: VOLUME>
33

> <ChEMBL_Data_Neisseria_g: FIRST_PAGE>
1470

> <ChEMBL_Data_Neisseria_g: MIC_vs_Neisseria_microg_per_mL>
0.125

> <ALogP>
4.288

> <Active>
1

> <Molecular_Weight>
823.948

$$$$

Generated by Molecular Materials Informatics

 59 64  0  0  0  0  0  0  0  0999 V2000
   -0.5754    7.6276    0.0000 C   0  0  0  0  0  0  0  0  0  0  0  0
   -1.3241    6.3281    0.0000 O   0  0  0  0  0  0  0  0  0  0  0  0
   -0.5729    5.0298    0.0000 C   0  0  0  0  0  0  0  0  0  0  0  0
    0.8154    5.6181    0.0000 C   0  0  0  0  0  0  0  0  0  0  0  0
    2.3206    5.8595    0.0000 C   0  0  0  0  0  0  0  0  0  0  0  0
    3.8750    5.9014    0.0000 O   0  0  0  0  0  0  0  0  0  0  0  0
    5.1304    4.9607    0.0000 C   0  0  0  0  0  0  0  0  0  0  0  0
    6.6274    4.8694    0.0000 C   0  0  0  0  0  0  0  0  0  0  0  0
    3.8301    4.2135    0.0000 O   0  0  0  0  0  0  0  0  0  0  0  0
    4.0057    2.7358    0.0000 C   0  0  0  0  0  0  0  0  0  0  0  0
    2.9362    1.6440    0.0000 C   0  0  0  0  0  0  0  0  0  0  0  0
    1.4737    1.9771    0.0000 C   0  0  0  0  0  0  0  0  0  0  0  0
    3.4180    0.2239    0.0000 C   0  0  0  0  0  0  0  0  0  0  0  0
    2.4137   -0.8902    0.0000 O   0  0  0  0  0  0  0  0  0  0  0  0
    4.9009   -0.1133    0.0000 C   0  0  0  0  0  0  0  0  0  0  0  0
    5.3215   -1.5638    0.0000 C   0  0  0  0  0  0  0  0  0  0  0  0
    4.2439   -2.6071    0.0000 O   0  0  0  0  0  0  0  0  0  0  0  0
    6.7441   -2.0263    0.0000 C   0  0  0  0  0  0  0  0  0  0  0  0
    6.1970   -3.4994    0.0000 N   0  0  0  0  0  0  0  0  0  0  0  0
    5.2540   -4.7217    0.0000 C   0  0  0  0  0  0  0  0  0  0  0  0
    6.2288   -5.8618    0.0000 O   0  0  0  0  0  0  0  0  0  0  0  0
    3.8597   -5.4858    0.0000 C   0  0  0  0  0  0  0  0  0  0  0  0
    2.3022   -5.7527    0.0000 C   0  0  0  0  0  0  0  0  0  0  0  0
    0.7054   -5.5553    0.0000 C   0  0  0  0  0  0  0  0  0  0  0  0
   -0.6816   -4.9632    0.0000 C   0  0  0  0  0  0  0  0  0  0  0  0
   -1.8686   -4.0298    0.0000 C   0  0  0  0  0  0  0  0  0  0  0  0
   -2.9421   -5.0770    0.0000 C   0  0  0  0  0  0  0  0  0  0  0  0
   -2.7698   -2.8231    0.0000 C   0  0  0  0  0  0  0  0  0  0  0  0
   -4.0783   -3.5562    0.0000 O   0  0  0  0  0  0  0  0  0  0  0  0
   -3.3279   -1.4243    0.0000 C   0  0  0  0  0  0  0  0  0  0  0  0
   -4.7817   -1.7937    0.0000 C   0  0  0  0  0  0  0  0  0  0  0  0
   -3.5050    0.0712    0.0000 C   0  0  0  0  0  0  0  0  0  0  0  0
   -5.0049    0.0907    0.0000 O   0  0  0  0  0  0  0  0  0  0  0  0
   -3.2892    1.5613    0.0000 C   0  0  0  0  0  0  0  0  0  0  0  0
   -4.7329    1.9680    0.0000 C   0  0  0  0  0  0  0  0  0  0  0  0
   -2.6960    2.9441    0.0000 C   0  0  0  0  0  0  0  0  0  0  0  0
   -3.9855    3.7097    0.0000 O   0  0  0  0  0  0  0  0  0  0  0  0
   -5.2936    2.9757    0.0000 C   0  0  0  0  0  0  0  0  0  0  0  0
   -6.5833    3.7415    0.0000 O   0  0  0  0  0  0  0  0  0  0  0  0
   -5.3118    1.4759    0.0000 C   0  0  0  0  0  0  0  0  0  0  0  0
   -1.7679    4.1246    0.0000 C   0  0  0  0  0  0  0  0  0  0  0  0
   -2.8189    5.1947    0.0000 C   0  0  0  0  0  0  0  0  0  0  0  0
    4.3535   -6.9021    0.0000 C   0  0  0  0  0  0  0  0  0  0  0  0
    7.7842   -0.9089    0.0000 C   0  0  0  0  0  0  0  0  0  0  0  0
    9.2794   -1.0274    0.0000 S   0  0  0  0  0  0  0  0  0  0  0  0
    9.8540    0.3581    0.0000 C   0  0  0  0  0  0  0  0  0  0  0  0
    8.7141    1.3328    0.0000 N   0  0  0  0  0  0  0  0  0  0  0  0
    7.4348    0.5497    0.0000 C   0  0  0  0  0  0  0  0  0  0  0  0
    5.9825    0.9850    0.0000 C   0  0  0  0  0  0  0  0  0  0  0  0
    5.5111    2.4961    0.0000 C   0  0  0  0  0  0  0  0  0  0  0  0
    6.2138    3.8679    0.0000 C   0  0  0  0  0  0  0  0  0  0  0  0
    7.6958    4.0977    0.0000 O   0  0  0  0  0  0  0  0  0  0  0  0
   11.3127    0.7075    0.0000 N   0  0  0  0  0  0  0  0  0  0  0  0
   11.7394    2.1454    0.0000 C   0  0  0  0  0  0  0  0  0  0  0  0
   13.1980    2.4949    0.0000 C   0  0  0  0  0  0  0  0  0  0  0  0
   14.2299    1.4062    0.0000 N   0  0  0  0  0  0  0  0  0  0  0  0
   15.6885    1.7557    0.0000 C   0  0  0  0  0  0  0  0  0  0  0  0
   13.8032   -0.0317    0.0000 C   0  0  0  0  0  0  0  0  0  0  0  0
   12.3446   -0.3811    0.0000 C   0  0  0  0  0  0  0  0  0  0  0  0
  1  2  1  0  0  0  0
  2  3  1  0  0  0  0
  3  4  1  0  0  0  0
  4  5  2  0  0  0  0
  5  6  1  0  0  0  0
  6  7  1  0  0  0  0
  7  8  1  0  0  0  0
  7  9  1  0  0  0  0
  9 10  1  0  0  0  0
 10 11  2  0  0  0  0
 11 12  1  0  0  0  0
 11 13  1  0  0  0  0
 13 14  1  0  0  0  0
 13 15  2  0  0  0  0
 15 16  1  0  0  0  0
 16 17  1  0  0  0  0
 16 18  2  0  0  0  0
 18 19  1  0  0  0  0
 19 20  1  0  0  0  0
 20 21  2  0  0  0  0
 20 22  1  0  0  0  0
 22 23  2  0  0  0  0
 23 24  1  0  0  0  0
 24 25  2  0  0  0  0
 25 26  1  0  0  0  0
 26 27  1  0  0  0  0
 26 28  1  0  0  0  0
 28 29  1  0  0  0  0
 28 30  1  0  0  0  0
 30 31  1  0  0  0  0
 30 32  1  0  0  0  0
 32 33  1  0  0  0  0
 32 34  1  0  0  0  0
 34 35  1  0  0  0  0
 34 36  1  0  0  0  0
 36 37  1  0  0  0  0
 37 38  1  0  0  0  0
 38 39  2  0  0  0  0
 38 40  1  0  0  0  0
 36 41  1  0  0  0  0
  3 41  1  0  0  0  0
 41 42  1  0  0  0  0
 22 43  1  0  0  0  0
 18 44  1  0  0  0  0
 44 45  1  0  0  0  0
 45 46  1  0  0  0  0
 46 47  2  0  0  0  0
 47 48  1  0  0  0  0
 44 48  2  0  0  0  0
 48 49  1  0  0  0  0
 15 49  1  0  0  0  0
 49 50  2  0  0  0  0
 10 50  1  0  0  0  0
 50 51  1  0  0  0  0
  7 51  1  0  0  0  0
 51 52  2  0  0  0  0
 46 53  1  0  0  0  0
 53 54  1  0  0  0  0
 54 55  1  0  0  0  0
 55 56  1  0  0  0  0
 56 57  1  0  0  0  0
 56 58  1  0  0  0  0
 58 59  1  0  0  0  0
 53 59  1  0  0  0  0
M  END
> <Molecule Name>
CHEMBL290078

> <IUPAC>
(9E,19E,21Z)-2,15,17,32-tetrahydroxy-11-methoxy-3,7,12,14,16,18,22-heptamethyl-28-(4-methylpiperazin-1-yl)-6,23-dioxo-8,33-dioxa-27-thia-24,29-diazapentacyclo[23.6.1.1,.0,.0,]tr
itriaconta-1,3,5(31),9,19,21,25(32),26(30),28-nonaen-13-yl acetate

> <Collections>
Set2_NotListedAsBetaLactamResistant (mostly)
TrainingSet_Kleb_p_ALPerryman_JSF

> <ChEMBL_Data_Neisseria_g: NUM_RO5_VIOLATIONS>
2

> <ChEMBL_Data_Neisseria_g: Qualifier_for_MIC_Ng>
=

> <ChEMBL_Data_Neisseria_g: ASSAY_CHEMBLID>
CHEMBL750222

> <ChEMBL_Data_Neisseria_g: DESCRIPTION_of_Assay_Ng>
In vitro antibacterial activity of compound against Neisseria gonorrhoeae ISM 68/126

> <ChEMBL_Data_Neisseria_g: PUBMED_ID>
2329569

> <ChEMBL_Data_Neisseria_g: YEAR>
1990

> <ChEMBL_Data_Neisseria_g: JOURNAL>
J. Med. Chem.

> <ChEMBL_Data_Neisseria_g: VOLUME>
33

> <ChEMBL_Data_Neisseria_g: FIRST_PAGE>
1470

> <ChEMBL_Data_Neisseria_g: MIC_vs_Neisseria_microg_per_mL>
16

> <ALogP>
4.558

> <Active>
0

> <Molecular_Weight>
836.99

$$$$

Generated by Molecular Materials Informatics

 58 63  0  0  0  0  0  0  0  0999 V2000
   -0.2472    7.6276    0.0000 C   0  0  0  0  0  0  0  0  0  0  0  0
   -0.9959    6.3280    0.0000 O   0  0  0  0  0  0  0  0  0  0  0  0
   -0.2447    5.0298    0.0000 C   0  0  0  0  0  0  0  0  0  0  0  0
    1.1436    5.6181    0.0000 C   0  0  0  0  0  0  0  0  0  0  0  0
    2.6487    5.8595    0.0000 C   0  0  0  0  0  0  0  0  0  0  0  0
    4.2032    5.9013    0.0000 O   0  0  0  0  0  0  0  0  0  0  0  0
    5.4585    4.9607    0.0000 C   0  0  0  0  0  0  0  0  0  0  0  0
    6.9555    4.8694    0.0000 C   0  0  0  0  0  0  0  0  0  0  0  0
    4.1583    4.2135    0.0000 O   0  0  0  0  0  0  0  0  0  0  0  0
    4.3339    2.7358    0.0000 C   0  0  0  0  0  0  0  0  0  0  0  0
    3.2643    1.6440    0.0000 C   0  0  0  0  0  0  0  0  0  0  0  0
    1.8019    1.9771    0.0000 C   0  0  0  0  0  0  0  0  0  0  0  0
    3.7461    0.2239    0.0000 C   0  0  0  0  0  0  0  0  0  0  0  0
    2.7418   -0.8902    0.0000 O   0  0  0  0  0  0  0  0  0  0  0  0
    5.2291   -0.1133    0.0000 C   0  0  0  0  0  0  0  0  0  0  0  0
    5.6496   -1.5637    0.0000 C   0  0  0  0  0  0  0  0  0  0  0  0
    4.5721   -2.6071    0.0000 O   0  0  0  0  0  0  0  0  0  0  0  0
    7.0722   -2.0263    0.0000 C   0  0  0  0  0  0  0  0  0  0  0  0
    6.5252   -3.4994    0.0000 N   0  0  0  0  0  0  0  0  0  0  0  0
    5.5822   -4.7217    0.0000 C   0  0  0  0  0  0  0  0  0  0  0  0
    6.5570   -5.8618    0.0000 O   0  0  0  0  0  0  0  0  0  0  0  0
    4.1879   -5.4858    0.0000 C   0  0  0  0  0  0  0  0  0  0  0  0
    2.6304   -5.7527    0.0000 C   0  0  0  0  0  0  0  0  0  0  0  0
    1.0336   -5.5553    0.0000 C   0  0  0  0  0  0  0  0  0  0  0  0
   -0.3534   -4.9631    0.0000 C   0  0  0  0  0  0  0  0  0  0  0  0
   -1.5404   -4.0297    0.0000 C   0  0  0  0  0  0  0  0  0  0  0  0
   -2.6140   -5.0769    0.0000 C   0  0  0  0  0  0  0  0  0  0  0  0
   -2.4416   -2.8231    0.0000 C   0  0  0  0  0  0  0  0  0  0  0  0
   -3.7501   -3.5561    0.0000 O   0  0  0  0  0  0  0  0  0  0  0  0
   -2.9998   -1.4243    0.0000 C   0  0  0  0  0  0  0  0  0  0  0  0
   -4.4535   -1.7937    0.0000 C   0  0  0  0  0  0  0  0  0  0  0  0
   -3.1768    0.0712    0.0000 C   0  0  0  0  0  0  0  0  0  0  0  0
   -4.6767    0.0907    0.0000 O   0  0  0  0  0  0  0  0  0  0  0  0
   -2.9610    1.5613    0.0000 C   0  0  0  0  0  0  0  0  0  0  0  0
   -4.4047    1.9680    0.0000 C   0  0  0  0  0  0  0  0  0  0  0  0
   -2.3678    2.9441    0.0000 C   0  0  0  0  0  0  0  0  0  0  0  0
   -3.6573    3.7097    0.0000 O   0  0  0  0  0  0  0  0  0  0  0  0
   -4.9654    2.9757    0.0000 C   0  0  0  0  0  0  0  0  0  0  0  0
   -6.2551    3.7415    0.0000 O   0  0  0  0  0  0  0  0  0  0  0  0
   -4.9836    1.4759    0.0000 C   0  0  0  0  0  0  0  0  0  0  0  0
   -1.4397    4.1246    0.0000 C   0  0  0  0  0  0  0  0  0  0  0  0
   -2.4907    5.1947    0.0000 C   0  0  0  0  0  0  0  0  0  0  0  0
    4.6817   -6.9021    0.0000 C   0  0  0  0  0  0  0  0  0  0  0  0
    8.1123   -0.9089    0.0000 C   0  0  0  0  0  0  0  0  0  0  0  0
    9.6075   -1.0274    0.0000 S   0  0  0  0  0  0  0  0  0  0  0  0
   10.1822    0.3581    0.0000 C   0  0  0  0  0  0  0  0  0  0  0  0
    9.0423    1.3328    0.0000 N   0  0  0  0  0  0  0  0  0  0  0  0
    7.7629    0.5497    0.0000 C   0  0  0  0  0  0  0  0  0  0  0  0
    6.3107    0.9850    0.0000 C   0  0  0  0  0  0  0  0  0  0  0  0
    5.8392    2.4961    0.0000 C   0  0  0  0  0  0  0  0  0  0  0  0
    6.5419    3.8679    0.0000 C   0  0  0  0  0  0  0  0  0  0  0  0
    8.0240    4.0977    0.0000 O   0  0  0  0  0  0  0  0  0  0  0  0
   11.6408    0.7075    0.0000 N   0  0  0  0  0  0  0  0  0  0  0  0
   12.0675    2.1454    0.0000 C   0  0  0  0  0  0  0  0  0  0  0  0
   13.5261    2.4949    0.0000 C   0  0  0  0  0  0  0  0  0  0  0  0
   14.5581    1.4062    0.0000 N   0  0  0  0  0  0  0  0  0  0  0  0
   14.1314   -0.0317    0.0000 C   0  0  0  0  0  0  0  0  0  0  0  0
   12.6727   -0.3811    0.0000 C   0  0  0  0  0  0  0  0  0  0  0  0
  1  2  1  0  0  0  0
  2  3  1  0  0  0  0
  3  4  1  0  0  0  0
  4  5  2  0  0  0  0
  5  6  1  0  0  0  0
  6  7  1  0  0  0  0
  7  8  1  0  0  0  0
  7  9  1  0  0  0  0
  9 10  1  0  0  0  0
 10 11  2  0  0  0  0
 11 12  1  0  0  0  0
 11 13  1  0  0  0  0
 13 14  1  0  0  0  0
 13 15  2  0  0  0  0
 15 16  1  0  0  0  0
 16 17  1  0  0  0  0
 16 18  2  0  0  0  0
 18 19  1  0  0  0  0
 19 20  1  0  0  0  0
 20 21  2  0  0  0  0
 20 22  1  0  0  0  0
 22 23  2  0  0  0  0
 23 24  1  0  0  0  0
 24 25  2  0  0  0  0
 25 26  1  0  0  0  0
 26 27  1  0  0  0  0
 26 28  1  0  0  0  0
 28 29  1  0  0  0  0
 28 30  1  0  0  0  0
 30 31  1  0  0  0  0
 30 32  1  0  0  0  0
 32 33  1  0  0  0  0
 32 34  1  0  0  0  0
 34 35  1  0  0  0  0
 34 36  1  0  0  0  0
 36 37  1  0  0  0  0
 37 38  1  0  0  0  0
 38 39  2  0  0  0  0
 38 40  1  0  0  0  0
 36 41  1  0  0  0  0
  3 41  1  0  0  0  0
 41 42  1  0  0  0  0
 22 43  1  0  0  0  0
 18 44  1  0  0  0  0
 44 45  1  0  0  0  0
 45 46  1  0  0  0  0
 46 47  2  0  0  0  0
 47 48  1  0  0  0  0
 44 48  2  0  0  0  0
 48 49  1  0  0  0  0
 15 49  1  0  0  0  0
 49 50  2  0  0  0  0
 10 50  1  0  0  0  0
 50 51  1  0  0  0  0
  7 51  1  0  0  0  0
 51 52  2  0  0  0  0
 46 53  1  0  0  0  0
 53 54  1  0  0  0  0
 54 55  1  0  0  0  0
 55 56  1  0  0  0  0
 56 57  1  0  0  0  0
 57 58  1  0  0  0  0
 53 58  1  0  0  0  0
M  END
> <Molecule Name>
CHEMBL287698

> <IUPAC>
(9E,19E,21Z)-2,15,17,32-tetrahydroxy-11-methoxy-3,7,12,14,16,18,22-heptamethyl-6,23-dioxo-28-(piperazin-1-yl)-8,33-dioxa-27-thia-24,29-diazapentacyclo[23.6.1.1,.0,.0,]tritriacon
ta-1,3,5(31),9,19,21,25(32),26(30),28-nonaen-13-yl acetate

> <Collections>
Set2_NotListedAsBetaLactamResistant (mostly)
TrainingSet_Kleb_p_ALPerryman_JSF

> <ChEMBL_Data_Neisseria_g: NUM_RO5_VIOLATIONS>
3

> <ChEMBL_Data_Neisseria_g: Qualifier_for_MIC_Ng>
=

> <ChEMBL_Data_Neisseria_g: ASSAY_CHEMBLID>
CHEMBL750222

> <ChEMBL_Data_Neisseria_g: DESCRIPTION_of_Assay_Ng>
In vitro antibacterial activity of compound against Neisseria gonorrhoeae ISM 68/126

> <ChEMBL_Data_Neisseria_g: PUBMED_ID>
2329569

> <ChEMBL_Data_Neisseria_g: YEAR>
1990

> <ChEMBL_Data_Neisseria_g: JOURNAL>
J. Med. Chem.

> <ChEMBL_Data_Neisseria_g: VOLUME>
33

> <ChEMBL_Data_Neisseria_g: FIRST_PAGE>
1470

> <ChEMBL_Data_Neisseria_g: MIC_vs_Neisseria_microg_per_mL>
0.125

> <ALogP>
4.022

> <Active>
1

> <Molecular_Weight>
822.963

$$$$

Generated by Molecular Materials Informatics

 19 20  0  0  0  0  0  0  0  0999 V2000
    1.4289    2.1937    0.0000 C   0  0  0  0  0  0  0  0  0  0  0  0
    2.7279    1.4437    0.0000 O   0  0  0  0  0  0  0  0  0  0  0  0
    2.7279   -0.0563    0.0000 C   0  0  0  0  0  0  0  0  0  0  0  0
    4.0270   -0.8063    0.0000 C   0  0  0  0  0  0  0  0  0  0  0  0
    5.3261   -0.0563    0.0000 C   0  0  0  0  0  0  0  0  0  0  0  0
    4.0270   -2.3063    0.0000 C   0  0  0  0  0  0  0  0  0  0  0  0
    2.7279   -3.0562    0.0000 C   0  0  0  0  0  0  0  0  0  0  0  0
    2.7279   -4.5562    0.0000 C   0  0  0  0  0  0  0  0  0  0  0  0
    1.4289   -5.3062    0.0000 C   0  0  0  0  0  0  0  0  0  0  0  0
    1.4289   -6.8062    0.0000 C   0  0  0  0  0  0  0  0  0  0  0  0
    0.1300   -7.5562    0.0000 N   0  0  0  0  0  0  0  0  0  0  0  0
   -1.1691   -6.8062    0.0000 C   0  0  0  0  0  0  0  0  0  0  0  0
   -2.4682   -7.5562    0.0000 N   0  0  0  0  0  0  0  0  0  0  0  0
   -1.1691   -5.3062    0.0000 N   0  0  0  0  0  0  0  0  0  0  0  0
    0.1300   -4.5562    0.0000 C   0  0  0  0  0  0  0  0  0  0  0  0
    0.1300   -3.0562    0.0000 N   0  0  0  0  0  0  0  0  0  0  0  0
    1.4289   -2.3063    0.0000 C   0  0  0  0  0  0  0  0  0  0  0  0
    1.4289   -0.8063    0.0000 C   0  0  0  0  0  0  0  0  0  0  0  0
    0.1300   -0.0563    0.0000 C   0  0  0  0  0  0  0  0  0  0  0  0
  1  2  1  0  0  0  0
  2  3  1  0  0  0  0
  3  4  2  0  0  0  0
  4  5  1  0  0  0  0
  4  6  1  0  0  0  0
  6  7  2  0  0  0  0
  7  8  1  0  0  0  0
  8  9  1  0  0  0  0
  9 10  2  0  0  0  0
 10 11  1  0  0  0  0
 11 12  2  0  0  0  0
 12 13  1  0  0  0  0
 12 14  1  0  0  0  0
 14 15  2  0  0  0  0
  9 15  1  0  0  0  0
 15 16  1  0  0  0  0
  7 17  1  0  0  0  0
 17 18  2  0  0  0  0
  3 18  1  0  0  0  0
 18 19  1  0  0  0  0
M  END
> <Molecule Name>
CHEMBL287553

> <IUPAC>
5-[(4-methoxy-3,5-dimethylphenyl)methyl]pyrimidine-2,4-diamine

> <ChEMBL_Data_Neisseria_g: NUM_RO5_VIOLATIONS>
0

> <ChEMBL_Data_Neisseria_g: Qualifier_for_MIC_Ng>
=

> <ChEMBL_Data_Neisseria_g: ASSAY_CHEMBLID>
CHEMBL753614

> <ChEMBL_Data_Neisseria_g: DESCRIPTION_of_Assay_Ng>
Inhibition of growth of Neisseria gonorrhoeae

> <ChEMBL_Data_Neisseria_g: PUBMED_ID>
3121854

> <ChEMBL_Data_Neisseria_g: YEAR>
1988

> <ChEMBL_Data_Neisseria_g: JOURNAL>
J. Med. Chem.

> <ChEMBL_Data_Neisseria_g: VOLUME>
31

> <ChEMBL_Data_Neisseria_g: FIRST_PAGE>
122

> <ChEMBL_Data_Neisseria_g: MIC_vs_Neisseria_microg_per_mL>
51.7

> <ALogP>
2.548

> <Active>
0

> <Molecular_Weight>
258.319

$$$$

Generated by Molecular Materials Informatics

 68 74  0  0  0  0  0  0  0  0999 V2000
   -1.9285    7.6279    0.0000 C   0  0  0  0  0  0  0  0  0  0  0  0
   -2.6772    6.3283    0.0000 O   0  0  0  0  0  0  0  0  0  0  0  0
   -1.9260    5.0300    0.0000 C   0  0  0  0  0  0  0  0  0  0  0  0
   -0.5377    5.6183    0.0000 C   0  0  0  0  0  0  0  0  0  0  0  0
    0.9676    5.8597    0.0000 C   0  0  0  0  0  0  0  0  0  0  0  0
    2.5221    5.9016    0.0000 O   0  0  0  0  0  0  0  0  0  0  0  0
    3.7775    4.9609    0.0000 C   0  0  0  0  0  0  0  0  0  0  0  0
    5.2745    4.8696    0.0000 C   0  0  0  0  0  0  0  0  0  0  0  0
    2.4772    4.2136    0.0000 O   0  0  0  0  0  0  0  0  0  0  0  0
    2.6528    2.7359    0.0000 C   0  0  0  0  0  0  0  0  0  0  0  0
    1.5832    1.6441    0.0000 C   0  0  0  0  0  0  0  0  0  0  0  0
    0.1207    1.9771    0.0000 C   0  0  0  0  0  0  0  0  0  0  0  0
    2.0650    0.2239    0.0000 C   0  0  0  0  0  0  0  0  0  0  0  0
    1.0607   -0.8902    0.0000 O   0  0  0  0  0  0  0  0  0  0  0  0
    3.5480   -0.1133    0.0000 C   0  0  0  0  0  0  0  0  0  0  0  0
    3.9686   -1.5638    0.0000 C   0  0  0  0  0  0  0  0  0  0  0  0
    2.8910   -2.6072    0.0000 O   0  0  0  0  0  0  0  0  0  0  0  0
    5.3912   -2.0264    0.0000 C   0  0  0  0  0  0  0  0  0  0  0  0
    4.8442   -3.4996    0.0000 N   0  0  0  0  0  0  0  0  0  0  0  0
    3.9011   -4.7219    0.0000 C   0  0  0  0  0  0  0  0  0  0  0  0
    4.8760   -5.8620    0.0000 O   0  0  0  0  0  0  0  0  0  0  0  0
    2.5068   -5.4861    0.0000 C   0  0  0  0  0  0  0  0  0  0  0  0
    0.9492   -5.7530    0.0000 C   0  0  0  0  0  0  0  0  0  0  0  0
   -0.6476   -5.5555    0.0000 C   0  0  0  0  0  0  0  0  0  0  0  0
   -2.0347   -4.9633    0.0000 C   0  0  0  0  0  0  0  0  0  0  0  0
   -3.2217   -4.0299    0.0000 C   0  0  0  0  0  0  0  0  0  0  0  0
   -4.2953   -5.0772    0.0000 C   0  0  0  0  0  0  0  0  0  0  0  0
   -4.1230   -2.8232    0.0000 C   0  0  0  0  0  0  0  0  0  0  0  0
   -5.4315   -3.5563    0.0000 O   0  0  0  0  0  0  0  0  0  0  0  0
   -4.6811   -1.4244    0.0000 C   0  0  0  0  0  0  0  0  0  0  0  0
   -6.1349   -1.7938    0.0000 C   0  0  0  0  0  0  0  0  0  0  0  0
   -4.8582    0.0712    0.0000 C   0  0  0  0  0  0  0  0  0  0  0  0
   -6.3582    0.0907    0.0000 O   0  0  0  0  0  0  0  0  0  0  0  0
   -4.6424    1.5613    0.0000 C   0  0  0  0  0  0  0  0  0  0  0  0
   -6.0862    1.9681    0.0000 C   0  0  0  0  0  0  0  0  0  0  0  0
   -4.0492    2.9442    0.0000 C   0  0  0  0  0  0  0  0  0  0  0  0
   -5.3388    3.7098    0.0000 O   0  0  0  0  0  0  0  0  0  0  0  0
   -6.6469    2.9758    0.0000 C   0  0  0  0  0  0  0  0  0  0  0  0
   -7.9367    3.7416    0.0000 O   0  0  0  0  0  0  0  0  0  0  0  0
   -6.6651    1.4759    0.0000 C   0  0  0  0  0  0  0  0  0  0  0  0
   -3.1210    4.1247    0.0000 C   0  0  0  0  0  0  0  0  0  0  0  0
   -4.1721    5.1949    0.0000 C   0  0  0  0  0  0  0  0  0  0  0  0
    3.0006   -6.9024    0.0000 C   0  0  0  0  0  0  0  0  0  0  0  0
    6.4314   -0.9089    0.0000 C   0  0  0  0  0  0  0  0  0  0  0  0
    7.9266   -1.0275    0.0000 S   0  0  0  0  0  0  0  0  0  0  0  0
    8.5013    0.3581    0.0000 C   0  0  0  0  0  0  0  0  0  0  0  0
    7.3614    1.3328    0.0000 N   0  0  0  0  0  0  0  0  0  0  0  0
    6.0819    0.5497    0.0000 C   0  0  0  0  0  0  0  0  0  0  0  0
    4.6296    0.9850    0.0000 C   0  0  0  0  0  0  0  0  0  0  0  0
    4.1582    2.4962    0.0000 C   0  0  0  0  0  0  0  0  0  0  0  0
    4.8609    3.8680    0.0000 C   0  0  0  0  0  0  0  0  0  0  0  0
    6.3430    4.0978    0.0000 O   0  0  0  0  0  0  0  0  0  0  0  0
    9.9600    0.7076    0.0000 N   0  0  0  0  0  0  0  0  0  0  0  0
   10.3867    2.1455    0.0000 C   0  0  0  0  0  0  0  0  0  0  0  0
   11.8454    2.4950    0.0000 C   0  0  0  0  0  0  0  0  0  0  0  0
   12.8773    1.4063    0.0000 N   0  0  0  0  0  0  0  0  0  0  0  0
   12.4506   -0.0317    0.0000 C   0  0  0  0  0  0  0  0  0  0  0  0
   10.9920   -0.3811    0.0000 C   0  0  0  0  0  0  0  0  0  0  0  0
   14.3360    1.7557    0.0000 C   0  0  0  0  0  0  0  0  0  0  0  0
   14.7627    3.1937    0.0000 O   0  0  0  0  0  0  0  0  0  0  0  0
   15.3680    0.6672    0.0000 O   0  0  0  0  0  0  0  0  0  0  0  0
   16.8267    1.0166    0.0000 C   0  0  0  0  0  0  0  0  0  0  0  0
   17.8586   -0.0719    0.0000 C   0  0  0  0  0  0  0  0  0  0  0  0
   19.3173    0.2776    0.0000 C   0  0  0  0  0  0  0  0  0  0  0  0
   20.3493   -0.8111    0.0000 C   0  0  0  0  0  0  0  0  0  0  0  0
   19.9226   -2.2491    0.0000 C   0  0  0  0  0  0  0  0  0  0  0  0
   18.4639   -2.5985    0.0000 C   0  0  0  0  0  0  0  0  0  0  0  0
   17.4319   -1.5098    0.0000 C   0  0  0  0  0  0  0  0  0  0  0  0
  1  2  1  0  0  0  0
  2  3  1  0  0  0  0
  3  4  1  0  0  0  0
  4  5  2  0  0  0  0
  5  6  1  0  0  0  0
  6  7  1  0  0  0  0
  7  8  1  0  0  0  0
  7  9  1  0  0  0  0
  9 10  1  0  0  0  0
 10 11  2  0  0  0  0
 11 12  1  0  0  0  0
 11 13  1  0  0  0  0
 13 14  1  0  0  0  0
 13 15  2  0  0  0  0
 15 16  1  0  0  0  0
 16 17  1  0  0  0  0
 16 18  2  0  0  0  0
 18 19  1  0  0  0  0
 19 20  1  0  0  0  0
 20 21  2  0  0  0  0
 20 22  1  0  0  0  0
 22 23  2  0  0  0  0
 23 24  1  0  0  0  0
 24 25  2  0  0  0  0
 25 26  1  0  0  0  0
 26 27  1  0  0  0  0
 26 28  1  0  0  0  0
 28 29  1  0  0  0  0
 28 30  1  0  0  0  0
 30 31  1  0  0  0  0
 30 32  1  0  0  0  0
 32 33  1  0  0  0  0
 32 34  1  0  0  0  0
 34 35  1  0  0  0  0
 34 36  1  0  0  0  0
 36 37  1  0  0  0  0
 37 38  1  0  0  0  0
 38 39  2  0  0  0  0
 38 40  1  0  0  0  0
 36 41  1  0  0  0  0
  3 41  1  0  0  0  0
 41 42  1  0  0  0  0
 22 43  1  0  0  0  0
 18 44  1  0  0  0  0
 44 45  1  0  0  0  0
 45 46  1  0  0  0  0
 46 47  2  0  0  0  0
 47 48  1  0  0  0  0
 44 48  2  0  0  0  0
 48 49  1  0  0  0  0
 15 49  1  0  0  0  0
 49 50  2  0  0  0  0
 10 50  1  0  0  0  0
 50 51  1  0  0  0  0
  7 51  1  0  0  0  0
 51 52  2  0  0  0  0
 46 53  1  0  0  0  0
 53 54  1  0  0  0  0
 54 55  1  0  0  0  0
 55 56  1  0  0  0  0
 56 57  1  0  0  0  0
 57 58  1  0  0  0  0
 53 58  1  0  0  0  0
 56 59  1  0  0  0  0
 59 60  2  0  0  0  0
 59 61  1  0  0  0  0
 61 62  1  0  0  0  0
 62 63  1  0  0  0  0
 63 64  2  0  0  0  0
 64 65  1  0  0  0  0
 65 66  2  0  0  0  0
 66 67  1  0  0  0  0
 67 68  2  0  0  0  0
 63 68  1  0  0  0  0
M  END
> <Molecule Name>
CHEMBL287132

> <IUPAC>
benzyl 4-[(9E,19E,21Z)-13-(acetyloxy)-2,15,17,32-tetrahydroxy-11-methoxy-3,7,12,14,16,18,22-heptamethyl-6,23-dioxo-8,33-dioxa-27-thia-24,29-diazapentacyclo[23.6.1.1,.0,.0,]tritr
iaconta-1,3,5(31),9,19,21,25(32),26(30),28-nonaen-28-yl]piperazine-1-carboxylate

> <Collections>
Set2_NotListedAsBetaLactamResistant (mostly)
TrainingSet_Kleb_p_ALPerryman_JSF

> <ChEMBL_Data_Neisseria_g: NUM_RO5_VIOLATIONS>
3

> <ChEMBL_Data_Neisseria_g: Qualifier_for_MIC_Ng>
=

> <ChEMBL_Data_Neisseria_g: ASSAY_CHEMBLID>
CHEMBL750222

> <ChEMBL_Data_Neisseria_g: DESCRIPTION_of_Assay_Ng>
In vitro antibacterial activity of compound against Neisseria gonorrhoeae ISM 68/126

> <ChEMBL_Data_Neisseria_g: PUBMED_ID>
2329569

> <ChEMBL_Data_Neisseria_g: YEAR>
1990

> <ChEMBL_Data_Neisseria_g: JOURNAL>
J. Med. Chem.

> <ChEMBL_Data_Neisseria_g: VOLUME>
33

> <ChEMBL_Data_Neisseria_g: FIRST_PAGE>
1470

> <ChEMBL_Data_Neisseria_g: MIC_vs_Neisseria_microg_per_mL>
0.125

> <ALogP>
6.044

> <Active>
1

> <Molecular_Weight>
957.095

$$$$

Generated by Molecular Materials Informatics

 59 64  0  0  0  0  0  0  0  0999 V2000
   -0.2472    7.6276    0.0000 C   0  0  0  0  0  0  0  0  0  0  0  0
   -0.9959    6.3281    0.0000 O   0  0  0  0  0  0  0  0  0  0  0  0
   -0.2447    5.0298    0.0000 C   0  0  0  0  0  0  0  0  0  0  0  0
    1.1436    5.6181    0.0000 C   0  0  0  0  0  0  0  0  0  0  0  0
    2.6487    5.8595    0.0000 C   0  0  0  0  0  0  0  0  0  0  0  0
    4.2032    5.9014    0.0000 O   0  0  0  0  0  0  0  0  0  0  0  0
    5.4585    4.9607    0.0000 C   0  0  0  0  0  0  0  0  0  0  0  0
    6.9555    4.8694    0.0000 C   0  0  0  0  0  0  0  0  0  0  0  0
    4.1583    4.2135    0.0000 O   0  0  0  0  0  0  0  0  0  0  0  0
    4.3339    2.7358    0.0000 C   0  0  0  0  0  0  0  0  0  0  0  0
    3.2643    1.6440    0.0000 C   0  0  0  0  0  0  0  0  0  0  0  0
    1.8019    1.9771    0.0000 C   0  0  0  0  0  0  0  0  0  0  0  0
    3.7461    0.2239    0.0000 C   0  0  0  0  0  0  0  0  0  0  0  0
    2.7418   -0.8902    0.0000 O   0  0  0  0  0  0  0  0  0  0  0  0
    5.2291   -0.1133    0.0000 C   0  0  0  0  0  0  0  0  0  0  0  0
    5.6496   -1.5638    0.0000 C   0  0  0  0  0  0  0  0  0  0  0  0
    4.5721   -2.6071    0.0000 O   0  0  0  0  0  0  0  0  0  0  0  0
    7.0722   -2.0263    0.0000 C   0  0  0  0  0  0  0  0  0  0  0  0
    6.5252   -3.4994    0.0000 N   0  0  0  0  0  0  0  0  0  0  0  0
    7.8369   -4.2268    0.0000 C   0  0  0  0  0  0  0  0  0  0  0  0
    5.5822   -4.7217    0.0000 C   0  0  0  0  0  0  0  0  0  0  0  0
    6.5570   -5.8618    0.0000 O   0  0  0  0  0  0  0  0  0  0  0  0
    4.1879   -5.4858    0.0000 C   0  0  0  0  0  0  0  0  0  0  0  0
    2.6304   -5.7527    0.0000 C   0  0  0  0  0  0  0  0  0  0  0  0
    1.0336   -5.5553    0.0000 C   0  0  0  0  0  0  0  0  0  0  0  0
   -0.3534   -4.9632    0.0000 C   0  0  0  0  0  0  0  0  0  0  0  0
   -1.5404   -4.0298    0.0000 C   0  0  0  0  0  0  0  0  0  0  0  0
   -2.6140   -5.0770    0.0000 C   0  0  0  0  0  0  0  0  0  0  0  0
   -2.4416   -2.8231    0.0000 C   0  0  0  0  0  0  0  0  0  0  0  0
   -3.7501   -3.5562    0.0000 O   0  0  0  0  0  0  0  0  0  0  0  0
   -2.9998   -1.4243    0.0000 C   0  0  0  0  0  0  0  0  0  0  0  0
   -4.4535   -1.7937    0.0000 C   0  0  0  0  0  0  0  0  0  0  0  0
   -3.1769    0.0712    0.0000 C   0  0  0  0  0  0  0  0  0  0  0  0
   -4.6768    0.0907    0.0000 O   0  0  0  0  0  0  0  0  0  0  0  0
   -2.9611    1.5613    0.0000 C   0  0  0  0  0  0  0  0  0  0  0  0
   -4.4048    1.9680    0.0000 C   0  0  0  0  0  0  0  0  0  0  0  0
   -2.3678    2.9441    0.0000 C   0  0  0  0  0  0  0  0  0  0  0  0
   -3.6574    3.7097    0.0000 O   0  0  0  0  0  0  0  0  0  0  0  0
   -4.9655    2.9757    0.0000 C   0  0  0  0  0  0  0  0  0  0  0  0
   -6.2552    3.7415    0.0000 O   0  0  0  0  0  0  0  0  0  0  0  0
   -4.9836    1.4759    0.0000 C   0  0  0  0  0  0  0  0  0  0  0  0
   -1.4397    4.1246    0.0000 C   0  0  0  0  0  0  0  0  0  0  0  0
   -2.4907    5.1947    0.0000 C   0  0  0  0  0  0  0  0  0  0  0  0
    4.6817   -6.9021    0.0000 C   0  0  0  0  0  0  0  0  0  0  0  0
    8.1124   -0.9089    0.0000 C   0  0  0  0  0  0  0  0  0  0  0  0
    9.6075   -1.0274    0.0000 S   0  0  0  0  0  0  0  0  0  0  0  0
   10.1822    0.3581    0.0000 C   0  0  0  0  0  0  0  0  0  0  0  0
    9.0423    1.3328    0.0000 N   0  0  0  0  0  0  0  0  0  0  0  0
    7.7629    0.5497    0.0000 C   0  0  0  0  0  0  0  0  0  0  0  0
    6.3107    0.9850    0.0000 C   0  0  0  0  0  0  0  0  0  0  0  0
    5.8392    2.4961    0.0000 C   0  0  0  0  0  0  0  0  0  0  0  0
    6.5419    3.8679    0.0000 C   0  0  0  0  0  0  0  0  0  0  0  0
    8.0240    4.0977    0.0000 O   0  0  0  0  0  0  0  0  0  0  0  0
   11.6408    0.7075    0.0000 N   0  0  0  0  0  0  0  0  0  0  0  0
   12.0675    2.1454    0.0000 C   0  0  0  0  0  0  0  0  0  0  0  0
   13.5262    2.4949    0.0000 C   0  0  0  0  0  0  0  0  0  0  0  0
   14.5581    1.4062    0.0000 C   0  0  0  0  0  0  0  0  0  0  0  0
   14.1314   -0.0317    0.0000 C   0  0  0  0  0  0  0  0  0  0  0  0
   12.6728   -0.3811    0.0000 C   0  0  0  0  0  0  0  0  0  0  0  0
  1  2  1  0  0  0  0
  2  3  1  0  0  0  0
  3  4  1  0  0  0  0
  4  5  2  0  0  0  0
  5  6  1  0  0  0  0
  6  7  1  0  0  0  0
  7  8  1  0  0  0  0
  7  9  1  0  0  0  0
  9 10  1  0  0  0  0
 10 11  2  0  0  0  0
 11 12  1  0  0  0  0
 11 13  1  0  0  0  0
 13 14  1  0  0  0  0
 13 15  2  0  0  0  0
 15 16  1  0  0  0  0
 16 17  1  0  0  0  0
 16 18  2  0  0  0  0
 18 19  1  0  0  0  0
 19 20  1  0  0  0  0
 19 21  1  0  0  0  0
 21 22  2  0  0  0  0
 21 23  1  0  0  0  0
 23 24  2  0  0  0  0
 24 25  1  0  0  0  0
 25 26  2  0  0  0  0
 26 27  1  0  0  0  0
 27 28  1  0  0  0  0
 27 29  1  0  0  0  0
 29 30  1  0  0  0  0
 29 31  1  0  0  0  0
 31 32  1  0  0  0  0
 31 33  1  0  0  0  0
 33 34  1  0  0  0  0
 33 35  1  0  0  0  0
 35 36  1  0  0  0  0
 35 37  1  0  0  0  0
 37 38  1  0  0  0  0
 38 39  1  0  0  0  0
 39 40  2  0  0  0  0
 39 41  1  0  0  0  0
 37 42  1  0  0  0  0
  3 42  1  0  0  0  0
 42 43  1  0  0  0  0
 23 44  1  0  0  0  0
 18 45  1  0  0  0  0
 45 46  1  0  0  0  0
 46 47  1  0  0  0  0
 47 48  2  0  0  0  0
 48 49  1  0  0  0  0
 45 49  2  0  0  0  0
 49 50  1  0  0  0  0
 15 50  1  0  0  0  0
 50 51  2  0  0  0  0
 10 51  1  0  0  0  0
 51 52  1  0  0  0  0
  7 52  1  0  0  0  0
 52 53  2  0  0  0  0
 47 54  1  0  0  0  0
 54 55  1  0  0  0  0
 55 56  1  0  0  0  0
 56 57  1  0  0  0  0
 57 58  1  0  0  0  0
 58 59  1  0  0  0  0
 54 59  1  0  0  0  0
M  END
> <Molecule Name>
CHEMBL286096

> <IUPAC>
(9E,19E,21Z)-2,15,17,32-tetrahydroxy-11-methoxy-3,7,12,14,16,18,22,24-octamethyl-6,23-dioxo-28-(piperidin-1-yl)-8,33-dioxa-27-thia-24,29-diazapentacyclo[23.6.1.1,.0,.0,]tritriac
onta-1,3,5(31),9,19,21,25(32),26(30),28-nonaen-13-yl acetate

> <Collections>
Set2_NotListedAsBetaLactamResistant (mostly)
TrainingSet_Kleb_p_ALPerryman_JSF

> <ChEMBL_Data_Neisseria_g: NUM_RO5_VIOLATIONS>
3

> <ChEMBL_Data_Neisseria_g: Qualifier_for_MIC_Ng>
=

> <ChEMBL_Data_Neisseria_g: ASSAY_CHEMBLID>
CHEMBL750222

> <ChEMBL_Data_Neisseria_g: DESCRIPTION_of_Assay_Ng>
In vitro antibacterial activity of compound against Neisseria gonorrhoeae ISM 68/126

> <ChEMBL_Data_Neisseria_g: PUBMED_ID>
2329569

> <ChEMBL_Data_Neisseria_g: YEAR>
1990

> <ChEMBL_Data_Neisseria_g: JOURNAL>
J. Med. Chem.

> <ChEMBL_Data_Neisseria_g: VOLUME>
33

> <ChEMBL_Data_Neisseria_g: FIRST_PAGE>
1470

> <ChEMBL_Data_Neisseria_g: MIC_vs_Neisseria_microg_per_mL>
0.5

> <ALogP>
5.724

> <Active>
1

> <Molecular_Weight>
836.002

$$$$

Generated by Molecular Materials Informatics

 63 68  0  0  0  0  0  0  0  0999 V2000
   -4.1628    5.0111    0.0000 C   0  0  0  0  0  0  0  0  0  0  0  0
   -3.7102    3.5812    0.0000 C   0  0  0  0  0  0  0  0  0  0  0  0
   -4.7224    2.4741    0.0000 O   0  0  0  0  0  0  0  0  0  0  0  0
   -4.2697    1.0442    0.0000 C   0  0  0  0  0  0  0  0  0  0  0  0
   -5.2818   -0.0628    0.0000 O   0  0  0  0  0  0  0  0  0  0  0  0
   -2.8050    0.7211    0.0000 N   0  0  0  0  0  0  0  0  0  0  0  0
   -1.7929    1.8282    0.0000 C   0  0  0  0  0  0  0  0  0  0  0  0
   -0.3283    1.5051    0.0000 C   0  0  0  0  0  0  0  0  0  0  0  0
    0.1244    0.0752    0.0000 N   0  0  0  0  0  0  0  0  0  0  0  0
   -0.8877   -1.0318    0.0000 C   0  0  0  0  0  0  0  0  0  0  0  0
   -2.3523   -0.7088    0.0000 C   0  0  0  0  0  0  0  0  0  0  0  0
    1.5891   -0.2479    0.0000 C   0  0  0  0  0  0  0  0  0  0  0  0
    2.2888   -1.4358    0.0000 N   0  0  0  0  0  0  0  0  0  0  0  0
    3.6817   -1.4773    0.0000 C   0  0  0  0  0  0  0  0  0  0  0  0
    4.0046   -0.0126    0.0000 C   0  0  0  0  0  0  0  0  0  0  0  0
    2.6112    0.5602    0.0000 S   0  0  0  0  0  0  0  0  0  0  0  0
    2.9650    1.0791    0.0000 C   0  0  0  0  0  0  0  0  0  0  0  0
    3.9747    2.3154    0.0000 N   0  0  0  0  0  0  0  0  0  0  0  0
    5.3050    3.1370    0.0000 C   0  0  0  0  0  0  0  0  0  0  0  0
    4.7936    4.5471    0.0000 O   0  0  0  0  0  0  0  0  0  0  0  0
    6.8595    3.3604    0.0000 C   0  0  0  0  0  0  0  0  0  0  0  0
    8.4118    3.0819    0.0000 C   0  0  0  0  0  0  0  0  0  0  0  0
    9.8213    2.3661    0.0000 C   0  0  0  0  0  0  0  0  0  0  0  0
   10.9371    1.3304    0.0000 C   0  0  0  0  0  0  0  0  0  0  0  0
   11.7356    0.0486    0.0000 C   0  0  0  0  0  0  0  0  0  0  0  0
   13.1017    0.6679    0.0000 C   0  0  0  0  0  0  0  0  0  0  0  0
   12.1723   -1.3936    0.0000 C   0  0  0  0  0  0  0  0  0  0  0  0
   13.6523   -1.1502    0.0000 O   0  0  0  0  0  0  0  0  0  0  0  0
   12.2204   -2.8986    0.0000 C   0  0  0  0  0  0  0  0  0  0  0  0
   13.7129   -3.0468    0.0000 C   0  0  0  0  0  0  0  0  0  0  0  0
   11.8774   -4.3649    0.0000 C   0  0  0  0  0  0  0  0  0  0  0  0
   13.2807   -4.8943    0.0000 O   0  0  0  0  0  0  0  0  0  0  0  0
   11.1665   -5.6925    0.0000 C   0  0  0  0  0  0  0  0  0  0  0  0
   12.3850   -6.5670    0.0000 C   0  0  0  0  0  0  0  0  0  0  0  0
   10.1364   -6.7906    0.0000 C   0  0  0  0  0  0  0  0  0  0  0  0
   11.0872   -7.9505    0.0000 O   0  0  0  0  0  0  0  0  0  0  0  0
   12.5673   -7.7071    0.0000 C   0  0  0  0  0  0  0  0  0  0  0  0
   13.0966   -6.3037    0.0000 O   0  0  0  0  0  0  0  0  0  0  0  0
   13.5182   -8.8672    0.0000 C   0  0  0  0  0  0  0  0  0  0  0  0
    8.8585   -7.5845    0.0000 C   0  0  0  0  0  0  0  0  0  0  0  0
    9.4775   -8.9506    0.0000 C   0  0  0  0  0  0  0  0  0  0  0  0
    7.4209   -8.0212    0.0000 C   0  0  0  0  0  0  0  0  0  0  0  0
    7.6694   -9.5004    0.0000 O   0  0  0  0  0  0  0  0  0  0  0  0
    6.5128  -10.4553    0.0000 C   0  0  0  0  0  0  0  0  0  0  0  0
    5.9224   -8.0781    0.0000 C   0  0  0  0  0  0  0  0  0  0  0  0
    4.4589   -7.7494    0.0000 C   0  0  0  0  0  0  0  0  0  0  0  0
    3.1146   -7.0753    0.0000 O   0  0  0  0  0  0  0  0  0  0  0  0
    2.0387   -6.0024    0.0000 C   0  0  0  0  0  0  0  0  0  0  0  0
    1.2833   -7.2984    0.0000 C   0  0  0  0  0  0  0  0  0  0  0  0
    0.5757   -5.5948    0.0000 O   0  0  0  0  0  0  0  0  0  0  0  0
    0.5044   -4.0578    0.0000 C   0  0  0  0  0  0  0  0  0  0  0  0
   -0.6508   -3.0704    0.0000 C   0  0  0  0  0  0  0  0  0  0  0  0
   -2.0694   -3.5577    0.0000 C   0  0  0  0  0  0  0  0  0  0  0  0
   -0.3439   -1.5711    0.0000 C   0  0  0  0  0  0  0  0  0  0  0  0
   -1.8414   -1.4873    0.0000 O   0  0  0  0  0  0  0  0  0  0  0  0
    1.0746   -0.9646    0.0000 C   0  0  0  0  0  0  0  0  0  0  0  0
    1.5054    0.5410    0.0000 C   0  0  0  0  0  0  0  0  0  0  0  0
    0.4061    1.5615    0.0000 O   0  0  0  0  0  0  0  0  0  0  0  0
    2.2225   -1.9749    0.0000 C   0  0  0  0  0  0  0  0  0  0  0  0
    1.9332   -3.5237    0.0000 C   0  0  0  0  0  0  0  0  0  0  0  0
    2.8664   -4.7294    0.0000 C   0  0  0  0  0  0  0  0  0  0  0  0
    4.3651   -4.6676    0.0000 O   0  0  0  0  0  0  0  0  0  0  0  0
    6.8857    4.8602    0.0000 C   0  0  0  0  0  0  0  0  0  0  0  0
  1  2  1  0  0  0  0
  2  3  1  0  0  0  0
  3  4  1  0  0  0  0
  4  5  2  0  0  0  0
  4  6  1  0  0  0  0
  6  7  1  0  0  0  0
  7  8  1  0  0  0  0
  8  9  1  0  0  0  0
  9 10  1  0  0  0  0
 10 11  1  0  0  0  0
  6 11  1  0  0  0  0
  9 12  1  0  0  0  0
 12 13  2  0  0  0  0
 13 14  1  0  0  0  0
 14 15  2  0  0  0  0
 15 16  1  0  0  0  0
 12 16  1  0  0  0  0
 15 17  1  0  0  0  0
 17 18  1  0  0  0  0
 18 19  1  0  0  0  0
 19 20  2  0  0  0  0
 19 21  1  0  0  0  0
 21 22  2  0  0  0  0
 22 23  1  0  0  0  0
 23 24  2  0  0  0  0
 24 25  1  0  0  0  0
 25 26  1  0  0  0  0
 25 27  1  0  0  0  0
 27 28  1  0  0  0  0
 27 29  1  0  0  0  0
 29 30  1  0  0  0  0
 29 31  1  0  0  0  0
 31 32  1  0  0  0  0
 31 33  1  0  0  0  0
 33 34  1  0  0  0  0
 33 35  1  0  0  0  0
 35 36  1  0  0  0  0
 36 37  1  0  0  0  0
 37 38  2  0  0  0  0
 37 39  1  0  0  0  0
 35 40  1  0  0  0  0
 40 41  1  0  0  0  0
 40 42  1  0  0  0  0
 42 43  1  0  0  0  0
 43 44  1  0  0  0  0
 42 45  1  0  0  0  0
 45 46  2  0  0  0  0
 46 47  1  0  0  0  0
 47 48  1  0  0  0  0
 48 49  1  0  0  0  0
 48 50  1  0  0  0  0
 50 51  1  0  0  0  0
 51 52  2  0  0  0  0
 52 53  1  0  0  0  0
 52 54  1  0  0  0  0
 54 55  1  0  0  0  0
 54 56  2  0  0  0  0
 56 57  1  0  0  0  0
 17 57  2  0  0  0  0
 57 58  1  0  0  0  0
 56 59  1  0  0  0  0
 14 59  1  0  0  0  0
 59 60  2  0  0  0  0
 51 60  1  0  0  0  0
 60 61  1  0  0  0  0
 48 61  1  0  0  0  0
 61 62  2  0  0  0  0
 21 63  1  0  0  0  0
M  END
> <Molecule Name>
CHEMBL285265

> <IUPAC>
ethyl 4-[(9E,19E,21Z)-13-(acetyloxy)-2,15,17,32-tetrahydroxy-11-methoxy-3,7,12,14,16,18,22-heptamethyl-6,23-dioxo-8,33-dioxa-27-thia-24,29-diazapentacyclo[23.6.1.1,.0,.0,]tritri
aconta-1,3,5(31),9,19,21,25(32),26(30),28-nonaen-28-yl]piperazine-1-carboxylate

> <Collections>
Set2_NotListedAsBetaLactamResistant (mostly)
TrainingSet_Kleb_p_ALPerryman_JSF

> <ChEMBL_Data_Neisseria_g: NUM_RO5_VIOLATIONS>
2

> <ChEMBL_Data_Neisseria_g: Qualifier_for_MIC_Ng>
=

> <ChEMBL_Data_Neisseria_g: ASSAY_CHEMBLID>
CHEMBL750222

> <ChEMBL_Data_Neisseria_g: DESCRIPTION_of_Assay_Ng>
In vitro antibacterial activity of compound against Neisseria gonorrhoeae ISM 68/126

> <ChEMBL_Data_Neisseria_g: PUBMED_ID>
2329569

> <ChEMBL_Data_Neisseria_g: YEAR>
1990

> <ChEMBL_Data_Neisseria_g: JOURNAL>
J. Med. Chem.

> <ChEMBL_Data_Neisseria_g: VOLUME>
33

> <ChEMBL_Data_Neisseria_g: FIRST_PAGE>
1470

> <ChEMBL_Data_Neisseria_g: MIC_vs_Neisseria_microg_per_mL>
0.125

> <ALogP>
4.81

> <Active>
1

> <Molecular_Weight>
895.026

$$$$

Generated by Molecular Materials Informatics

 22 23  0  0  0  0  0  0  0  0999 V2000
   -2.5979    1.5186    0.0000 C   0  0  0  0  0  0  0  0  0  0  0  0
   -1.2991    0.7687    0.0000 O   0  0  0  0  0  0  0  0  0  0  0  0
   -1.2991   -0.7313    0.0000 C   0  0  0  0  0  0  0  0  0  0  0  0
    0.0000   -1.4813    0.0000 C   0  0  0  0  0  0  0  0  0  0  0  0
    0.0000   -2.9812    0.0000 C   0  0  0  0  0  0  0  0  0  0  0  0
    1.2991   -3.7312    0.0000 C   0  0  0  0  0  0  0  0  0  0  0  0
    2.5979   -2.9812    0.0000 C   0  0  0  0  0  0  0  0  0  0  0  0
    2.5979   -1.4813    0.0000 C   0  0  0  0  0  0  0  0  0  0  0  0
    3.8970   -0.7313    0.0000 N   0  0  0  0  0  0  0  0  0  0  0  0
    5.1960   -1.4813    0.0000 C   0  0  0  0  0  0  0  0  0  0  0  0
    6.4951   -0.7313    0.0000 N   0  0  0  0  0  0  0  0  0  0  0  0
    5.1960   -2.9812    0.0000 N   0  0  0  0  0  0  0  0  0  0  0  0
    3.8970   -3.7312    0.0000 C   0  0  0  0  0  0  0  0  0  0  0  0
    3.8970   -5.2311    0.0000 N   0  0  0  0  0  0  0  0  0  0  0  0
   -1.2991   -3.7312    0.0000 C   0  0  0  0  0  0  0  0  0  0  0  0
   -2.5979   -2.9812    0.0000 C   0  0  0  0  0  0  0  0  0  0  0  0
   -3.8970   -3.7312    0.0000 C   0  0  0  0  0  0  0  0  0  0  0  0
   -5.1960   -2.9812    0.0000 C   0  0  0  0  0  0  0  0  0  0  0  0
   -6.4951   -3.7312    0.0000 C   0  0  0  0  0  0  0  0  0  0  0  0
   -2.5979   -1.4813    0.0000 C   0  0  0  0  0  0  0  0  0  0  0  0
   -3.8970   -0.7313    0.0000 O   0  0  0  0  0  0  0  0  0  0  0  0
   -3.8970    0.7687    0.0000 C   0  0  0  0  0  0  0  0  0  0  0  0
  1  2  1  0  0  0  0
  2  3  1  0  0  0  0
  3  4  2  0  0  0  0
  4  5  1  0  0  0  0
  5  6  1  0  0  0  0
  6  7  1  0  0  0  0
  7  8  2  0  0  0  0
  8  9  1  0  0  0  0
  9 10  2  0  0  0  0
 10 11  1  0  0  0  0
 10 12  1  0  0  0  0
 12 13  2  0  0  0  0
  7 13  1  0  0  0  0
 13 14  1  0  0  0  0
  5 15  2  0  0  0  0
 15 16  1  0  0  0  0
 16 17  1  0  0  0  0
 17 18  1  0  0  0  0
 18 19  2  0  0  0  0
 16 20  2  0  0  0  0
  3 20  1  0  0  0  0
 20 21  1  0  0  0  0
 21 22  1  0  0  0  0
M  END
> <Molecule Name>
CHEMBL282022

> <IUPAC>
5-{[3,4-dimethoxy-5-(prop-2-en-1-yl)phenyl]methyl}pyrimidine-2,4-diamine

> <Collections>
TrainingSet_Kleb_p_ALPerryman_JSF

> <ChEMBL_Data_Neisseria_g: NUM_RO5_VIOLATIONS>
0

> <ChEMBL_Data_Neisseria_g: Qualifier_for_MIC_Ng>
=

> <ChEMBL_Data_Neisseria_g: ASSAY_CHEMBLID>
CHEMBL753614

> <ChEMBL_Data_Neisseria_g: DESCRIPTION_of_Assay_Ng>
Inhibition of growth of Neisseria gonorrhoeae

> <ChEMBL_Data_Neisseria_g: PUBMED_ID>
3121854

> <ChEMBL_Data_Neisseria_g: YEAR>
1988

> <ChEMBL_Data_Neisseria_g: JOURNAL>
J. Med. Chem.

> <ChEMBL_Data_Neisseria_g: VOLUME>
31

> <ChEMBL_Data_Neisseria_g: FIRST_PAGE>
122

> <ChEMBL_Data_Neisseria_g: MIC_vs_Neisseria_microg_per_mL>
33

> <ALogP>
2.567

> <Active>
0

> <Molecular_Weight>
300.356

$$$$

Generated by Molecular Materials Informatics

 61 65  0  0  0  0  0  0  0  0999 V2000
   -2.9919   -8.5049    0.0000 C   0  0  0  0  0  0  0  0  0  0  0  0
   -2.9919   -7.0050    0.0000 C   0  0  0  0  0  0  0  0  0  0  0  0
   -1.6929   -6.2551    0.0000 C   0  0  0  0  0  0  0  0  0  0  0  0
   -1.6929   -4.7552    0.0000 C   0  0  0  0  0  0  0  0  0  0  0  0
   -0.3941   -4.0052    0.0000 N   0  0  0  0  0  0  0  0  0  0  0  0
    0.9049   -4.7552    0.0000 C   0  0  0  0  0  0  0  0  0  0  0  0
    0.9049   -6.2551    0.0000 C   0  0  0  0  0  0  0  0  0  0  0  0
    2.2040   -7.0050    0.0000 C   0  0  0  0  0  0  0  0  0  0  0  0
    2.2040   -8.5049    0.0000 C   0  0  0  0  0  0  0  0  0  0  0  0
   -0.3941   -2.5053    0.0000 C   0  0  0  0  0  0  0  0  0  0  0  0
    0.6153   -1.5661    0.0000 N   0  0  0  0  0  0  0  0  0  0  0  0
    0.3559   -0.1970    0.0000 C   0  0  0  0  0  0  0  0  0  0  0  0
   -1.1440   -0.1970    0.0000 C   0  0  0  0  0  0  0  0  0  0  0  0
   -1.4033   -1.6811    0.0000 S   0  0  0  0  0  0  0  0  0  0  0  0
   -1.9862   -1.4473    0.0000 C   0  0  0  0  0  0  0  0  0  0  0  0
   -3.4110   -0.7277    0.0000 N   0  0  0  0  0  0  0  0  0  0  0  0
   -4.4998    0.3946    0.0000 C   0  0  0  0  0  0  0  0  0  0  0  0
   -5.7665   -0.4085    0.0000 O   0  0  0  0  0  0  0  0  0  0  0  0
   -5.0527    1.8643    0.0000 C   0  0  0  0  0  0  0  0  0  0  0  0
   -5.1149    3.4402    0.0000 C   0  0  0  0  0  0  0  0  0  0  0  0
   -4.7197    4.9708    0.0000 C   0  0  0  0  0  0  0  0  0  0  0  0
   -3.9484    6.2835    0.0000 C   0  0  0  0  0  0  0  0  0  0  0  0
   -2.8688    7.3391    0.0000 C   0  0  0  0  0  0  0  0  0  0  0  0
   -3.7677    8.5399    0.0000 C   0  0  0  0  0  0  0  0  0  0  0  0
   -1.5544    8.0763    0.0000 C   0  0  0  0  0  0  0  0  0  0  0  0
   -2.1109    9.4691    0.0000 O   0  0  0  0  0  0  0  0  0  0  0  0
   -0.0950    8.4474    0.0000 C   0  0  0  0  0  0  0  0  0  0  0  0
   -0.2717    9.9369    0.0000 C   0  0  0  0  0  0  0  0  0  0  0  0
    1.4107    8.4281    0.0000 C   0  0  0  0  0  0  0  0  0  0  0  0
    1.6256    9.9126    0.0000 O   0  0  0  0  0  0  0  0  0  0  0  0
    2.8603    8.0200    0.0000 C   0  0  0  0  0  0  0  0  0  0  0  0
    3.4519    9.3982    0.0000 C   0  0  0  0  0  0  0  0  0  0  0  0
    4.1544    7.2505    0.0000 C   0  0  0  0  0  0  0  0  0  0  0  0
    5.0825    8.4288    0.0000 O   0  0  0  0  0  0  0  0  0  0  0  0
    4.5260    9.8217    0.0000 C   0  0  0  0  0  0  0  0  0  0  0  0
    3.0416   10.0362    0.0000 O   0  0  0  0  0  0  0  0  0  0  0  0
    5.4540   11.0001    0.0000 C   0  0  0  0  0  0  0  0  0  0  0  0
    5.2049    6.1735    0.0000 C   0  0  0  0  0  0  0  0  0  0  0  0
    6.4057    7.0722    0.0000 C   0  0  0  0  0  0  0  0  0  0  0  0
    5.9410    4.8638    0.0000 C   0  0  0  0  0  0  0  0  0  0  0  0
    7.3319    5.4250    0.0000 O   0  0  0  0  0  0  0  0  0  0  0  0
    8.5134    4.5011    0.0000 C   0  0  0  0  0  0  0  0  0  0  0  0
    6.3194    3.4128    0.0000 C   0  0  0  0  0  0  0  0  0  0  0  0
    6.3135    1.9128    0.0000 C   0  0  0  0  0  0  0  0  0  0  0  0
    5.9447    0.4549    0.0000 O   0  0  0  0  0  0  0  0  0  0  0  0
    5.1287   -0.8270    0.0000 C   0  0  0  0  0  0  0  0  0  0  0  0
    6.5568   -1.2855    0.0000 C   0  0  0  0  0  0  0  0  0  0  0  0
    5.0458   -2.3435    0.0000 O   0  0  0  0  0  0  0  0  0  0  0  0
    3.5602   -2.7440    0.0000 C   0  0  0  0  0  0  0  0  0  0  0  0
    2.8447   -4.0848    0.0000 C   0  0  0  0  0  0  0  0  0  0  0  0
    3.6261   -5.3651    0.0000 C   0  0  0  0  0  0  0  0  0  0  0  0
    1.3144   -4.1079    0.0000 C   0  0  0  0  0  0  0  0  0  0  0  0
    1.5551   -5.5884    0.0000 O   0  0  0  0  0  0  0  0  0  0  0  0
    0.4166   -2.8534    0.0000 C   0  0  0  0  0  0  0  0  0  0  0  0
   -1.1464   -2.7569    0.0000 C   0  0  0  0  0  0  0  0  0  0  0  0
   -1.9062   -4.0503    0.0000 O   0  0  0  0  0  0  0  0  0  0  0  0
    1.1560   -1.5148    0.0000 C   0  0  0  0  0  0  0  0  0  0  0  0
    2.7308   -1.4639    0.0000 C   0  0  0  0  0  0  0  0  0  0  0  0
    3.7071   -0.2927    0.0000 C   0  0  0  0  0  0  0  0  0  0  0  0
    3.3243    1.1574    0.0000 O   0  0  0  0  0  0  0  0  0  0  0  0
   -6.5228    1.5669    0.0000 C   0  0  0  0  0  0  0  0  0  0  0  0
  1  2  1  0  0  0  0
  2  3  1  0  0  0  0
  3  4  1  0  0  0  0
  4  5  1  0  0  0  0
  5  6  1  0  0  0  0
  6  7  1  0  0  0  0
  7  8  1  0  0  0  0
  8  9  1  0  0  0  0
  5 10  1  0  0  0  0
 10 11  2  0  0  0  0
 11 12  1  0  0  0  0
 12 13  2  0  0  0  0
 13 14  1  0  0  0  0
 10 14  1  0  0  0  0
 13 15  1  0  0  0  0
 15 16  1  0  0  0  0
 16 17  1  0  0  0  0
 17 18  2  0  0  0  0
 17 19  1  0  0  0  0
 19 20  2  0  0  0  0
 20 21  1  0  0  0  0
 21 22  2  0  0  0  0
 22 23  1  0  0  0  0
 23 24  1  0  0  0  0
 23 25  1  0  0  0  0
 25 26  1  0  0  0  0
 25 27  1  0  0  0  0
 27 28  1  0  0  0  0
 27 29  1  0  0  0  0
 29 30  1  0  0  0  0
 29 31  1  0  0  0  0
 31 32  1  0  0  0  0
 31 33  1  0  0  0  0
 33 34  1  0  0  0  0
 34 35  1  0  0  0  0
 35 36  2  0  0  0  0
 35 37  1  0  0  0  0
 33 38  1  0  0  0  0
 38 39  1  0  0  0  0
 38 40  1  0  0  0  0
 40 41  1  0  0  0  0
 41 42  1  0  0  0  0
 40 43  1  0  0  0  0
 43 44  2  0  0  0  0
 44 45  1  0  0  0  0
 45 46  1  0  0  0  0
 46 47  1  0  0  0  0
 46 48  1  0  0  0  0
 48 49  1  0  0  0  0
 49 50  2  0  0  0  0
 50 51  1  0  0  0  0
 50 52  1  0  0  0  0
 52 53  1  0  0  0  0
 52 54  2  0  0  0  0
 54 55  1  0  0  0  0
 15 55  2  0  0  0  0
 55 56  1  0  0  0  0
 54 57  1  0  0  0  0
 12 57  1  0  0  0  0
 57 58  2  0  0  0  0
 49 58  1  0  0  0  0
 58 59  1  0  0  0  0
 46 59  1  0  0  0  0
 59 60  2  0  0  0  0
 19 61  1  0  0  0  0
M  END
> <Molecule Name>
CHEMBL279584

> <IUPAC>
(9E,19E,21Z)-28-(dibutylamino)-2,15,17,32-tetrahydroxy-11-methoxy-3,7,12,14,16,18,22-heptamethyl-6,23-dioxo-8,33-dioxa-27-thia-24,29-diazapentacyclo[23.6.1.1,.0,.0,]tritriaconta
-1,3,5(31),9,19,21,25(32),26(30),28-nonaen-13-yl acetate

> <Collections>
Set2_NotListedAsBetaLactamResistant (mostly)
TrainingSet_Kleb_p_ALPerryman_JSF

> <ChEMBL_Data_Neisseria_g: NUM_RO5_VIOLATIONS>
3

> <ChEMBL_Data_Neisseria_g: Qualifier_for_MIC_Ng>
=

> <ChEMBL_Data_Neisseria_g: ASSAY_CHEMBLID>
CHEMBL750222

> <ChEMBL_Data_Neisseria_g: DESCRIPTION_of_Assay_Ng>
In vitro antibacterial activity of compound against Neisseria gonorrhoeae ISM 68/126

> <ChEMBL_Data_Neisseria_g: PUBMED_ID>
2329569

> <ChEMBL_Data_Neisseria_g: YEAR>
1990

> <ChEMBL_Data_Neisseria_g: JOURNAL>
J. Med. Chem.

> <ChEMBL_Data_Neisseria_g: VOLUME>
33

> <ChEMBL_Data_Neisseria_g: FIRST_PAGE>
1470

> <ChEMBL_Data_Neisseria_g: MIC_vs_Neisseria_microg_per_mL>
2

> <ALogP>
7.258

> <Active>
1

> <Molecular_Weight>
866.071

$$$$

Generated by Molecular Materials Informatics

 22 23  0  0  0  0  0  0  0  0999 V2000
    0.8443    3.6938    0.0000 C   0  0  0  0  0  0  0  0  0  0  0  0
    0.8443    2.1938    0.0000 C   0  0  0  0  0  0  0  0  0  0  0  0
    2.1434    1.4438    0.0000 C   0  0  0  0  0  0  0  0  0  0  0  0
    2.1434   -0.0562    0.0000 C   0  0  0  0  0  0  0  0  0  0  0  0
    3.4425   -0.8062    0.0000 C   0  0  0  0  0  0  0  0  0  0  0  0
    3.4425   -2.3062    0.0000 C   0  0  0  0  0  0  0  0  0  0  0  0
    4.7416   -3.0563    0.0000 C   0  0  0  0  0  0  0  0  0  0  0  0
    4.7416   -4.5563    0.0000 C   0  0  0  0  0  0  0  0  0  0  0  0
    6.0405   -5.3063    0.0000 C   0  0  0  0  0  0  0  0  0  0  0  0
    6.0405   -6.8062    0.0000 N   0  0  0  0  0  0  0  0  0  0  0  0
    4.7416   -7.5563    0.0000 C   0  0  0  0  0  0  0  0  0  0  0  0
    4.7416   -9.0562    0.0000 N   0  0  0  0  0  0  0  0  0  0  0  0
    3.4425   -6.8062    0.0000 N   0  0  0  0  0  0  0  0  0  0  0  0
    3.4425   -5.3063    0.0000 C   0  0  0  0  0  0  0  0  0  0  0  0
    2.1434   -4.5563    0.0000 N   0  0  0  0  0  0  0  0  0  0  0  0
    2.1434   -3.0563    0.0000 C   0  0  0  0  0  0  0  0  0  0  0  0
    0.8443   -2.3062    0.0000 C   0  0  0  0  0  0  0  0  0  0  0  0
   -0.4546   -3.0563    0.0000 C   0  0  0  0  0  0  0  0  0  0  0  0
   -1.7537   -2.3062    0.0000 C   0  0  0  0  0  0  0  0  0  0  0  0
    0.8443   -0.8062    0.0000 C   0  0  0  0  0  0  0  0  0  0  0  0
   -0.4546   -0.0562    0.0000 O   0  0  0  0  0  0  0  0  0  0  0  0
   -0.4546    1.4438    0.0000 C   0  0  0  0  0  0  0  0  0  0  0  0
  1  2  1  0  0  0  0
  2  3  1  0  0  0  0
  3  4  1  0  0  0  0
  4  5  2  0  0  0  0
  5  6  1  0  0  0  0
  6  7  1  0  0  0  0
  7  8  1  0  0  0  0
  8  9  2  0  0  0  0
  9 10  1  0  0  0  0
 10 11  2  0  0  0  0
 11 12  1  0  0  0  0
 11 13  1  0  0  0  0
 13 14  2  0  0  0  0
  8 14  1  0  0  0  0
 14 15  1  0  0  0  0
  6 16  2  0  0  0  0
 16 17  1  0  0  0  0
 17 18  1  0  0  0  0
 18 19  1  0  0  0  0
 17 20  2  0  0  0  0
  4 20  1  0  0  0  0
 20 21  1  0  0  0  0
 21 22  1  0  0  0  0
M  END
> <Molecule Name>
CHEMBL279455

> <IUPAC>
5-[(3-ethyl-4-methoxy-5-propylphenyl)methyl]pyrimidine-2,4-diamine

> <ChEMBL_Data_Neisseria_g: NUM_RO5_VIOLATIONS>
0

> <ChEMBL_Data_Neisseria_g: Qualifier_for_MIC_Ng>
=

> <ChEMBL_Data_Neisseria_g: ASSAY_CHEMBLID>
CHEMBL753614

> <ChEMBL_Data_Neisseria_g: DESCRIPTION_of_Assay_Ng>
Inhibition of growth of Neisseria gonorrhoeae

> <ChEMBL_Data_Neisseria_g: PUBMED_ID>
3121854

> <ChEMBL_Data_Neisseria_g: YEAR>
1988

> <ChEMBL_Data_Neisseria_g: JOURNAL>
J. Med. Chem.

> <ChEMBL_Data_Neisseria_g: VOLUME>
31

> <ChEMBL_Data_Neisseria_g: FIRST_PAGE>
122

> <ChEMBL_Data_Neisseria_g: MIC_vs_Neisseria_microg_per_mL>
5.3

> <ALogP>
3.917

> <Active>
1

> <Molecular_Weight>
300.399

$$$$

Generated by Molecular Materials Informatics

 22 23  0  0  0  0  0  0  0  0999 V2000
    0.8443    3.6938    0.0000 C   0  0  0  0  0  0  0  0  0  0  0  0
    0.8443    2.1938    0.0000 C   0  0  0  0  0  0  0  0  0  0  0  0
    2.1434    1.4438    0.0000 C   0  0  0  0  0  0  0  0  0  0  0  0
    2.1434   -0.0562    0.0000 C   0  0  0  0  0  0  0  0  0  0  0  0
    3.4425   -0.8062    0.0000 C   0  0  0  0  0  0  0  0  0  0  0  0
    3.4425   -2.3062    0.0000 C   0  0  0  0  0  0  0  0  0  0  0  0
    4.7416   -3.0563    0.0000 C   0  0  0  0  0  0  0  0  0  0  0  0
    4.7416   -4.5563    0.0000 C   0  0  0  0  0  0  0  0  0  0  0  0
    6.0405   -5.3063    0.0000 C   0  0  0  0  0  0  0  0  0  0  0  0
    6.0405   -6.8062    0.0000 N   0  0  0  0  0  0  0  0  0  0  0  0
    4.7416   -7.5563    0.0000 C   0  0  0  0  0  0  0  0  0  0  0  0
    4.7416   -9.0562    0.0000 N   0  0  0  0  0  0  0  0  0  0  0  0
    3.4425   -6.8062    0.0000 N   0  0  0  0  0  0  0  0  0  0  0  0
    3.4425   -5.3063    0.0000 C   0  0  0  0  0  0  0  0  0  0  0  0
    2.1434   -4.5563    0.0000 N   0  0  0  0  0  0  0  0  0  0  0  0
    2.1434   -3.0563    0.0000 C   0  0  0  0  0  0  0  0  0  0  0  0
    0.8443   -2.3062    0.0000 C   0  0  0  0  0  0  0  0  0  0  0  0
   -0.4546   -3.0563    0.0000 O   0  0  0  0  0  0  0  0  0  0  0  0
   -1.7537   -2.3062    0.0000 C   0  0  0  0  0  0  0  0  0  0  0  0
    0.8443   -0.8062    0.0000 C   0  0  0  0  0  0  0  0  0  0  0  0
   -0.4546   -0.0562    0.0000 O   0  0  0  0  0  0  0  0  0  0  0  0
   -0.4546    1.4438    0.0000 C   0  0  0  0  0  0  0  0  0  0  0  0
  1  2  1  0  0  0  0
  2  3  1  0  0  0  0
  3  4  1  0  0  0  0
  4  5  2  0  0  0  0
  5  6  1  0  0  0  0
  6  7  1  0  0  0  0
  7  8  1  0  0  0  0
  8  9  2  0  0  0  0
  9 10  1  0  0  0  0
 10 11  2  0  0  0  0
 11 12  1  0  0  0  0
 11 13  1  0  0  0  0
 13 14  2  0  0  0  0
  8 14  1  0  0  0  0
 14 15  1  0  0  0  0
  6 16  2  0  0  0  0
 16 17  1  0  0  0  0
 17 18  1  0  0  0  0
 18 19  1  0  0  0  0
 17 20  2  0  0  0  0
  4 20  1  0  0  0  0
 20 21  1  0  0  0  0
 21 22  1  0  0  0  0
M  END
> <Molecule Name>
CHEMBL278345

> <CDD Number>
CDD-1002103

> <IUPAC>
5-[(3,4-dimethoxy-5-propylphenyl)methyl]pyrimidine-2,4-diamine

> <Collections>
TrainingSet_Kleb_p_ALPerryman_JSF

> <ChEMBL_Data_Neisseria_g: NUM_RO5_VIOLATIONS>
0

> <ChEMBL_Data_Neisseria_g: Qualifier_for_MIC_Ng>
=

> <ChEMBL_Data_Neisseria_g: ASSAY_CHEMBLID>
CHEMBL753614

> <ChEMBL_Data_Neisseria_g: DESCRIPTION_of_Assay_Ng>
Inhibition of growth of Neisseria gonorrhoeae

> <ChEMBL_Data_Neisseria_g: PUBMED_ID>
3121854

> <ChEMBL_Data_Neisseria_g: YEAR>
1988

> <ChEMBL_Data_Neisseria_g: JOURNAL>
J. Med. Chem.

> <ChEMBL_Data_Neisseria_g: VOLUME>
31

> <ChEMBL_Data_Neisseria_g: FIRST_PAGE>
122

> <ChEMBL_Data_Neisseria_g: MIC_vs_Neisseria_microg_per_mL>
16.3

> <ALogP>
2.958

> <Active>
0

> <Molecular_Weight>
302.371

$$$$

Generated by Molecular Materials Informatics

 24 25  0  0  0  0  0  0  0  0999 V2000
    2.1434    3.1125    0.0000 C   0  0  0  0  0  0  0  0  0  0  0  0
    2.1434    1.6125    0.0000 C   0  0  0  0  0  0  0  0  0  0  0  0
    0.6434    1.6125    0.0000 C   0  0  0  0  0  0  0  0  0  0  0  0
    3.6434    1.6125    0.0000 C   0  0  0  0  0  0  0  0  0  0  0  0
    2.1434    0.1125    0.0000 C   0  0  0  0  0  0  0  0  0  0  0  0
    3.4425   -0.6375    0.0000 C   0  0  0  0  0  0  0  0  0  0  0  0
    3.4425   -2.1375    0.0000 C   0  0  0  0  0  0  0  0  0  0  0  0
    4.7416   -2.8875    0.0000 C   0  0  0  0  0  0  0  0  0  0  0  0
    4.7416   -4.3875    0.0000 C   0  0  0  0  0  0  0  0  0  0  0  0
    6.0405   -5.1375    0.0000 C   0  0  0  0  0  0  0  0  0  0  0  0
    6.0405   -6.6375    0.0000 N   0  0  0  0  0  0  0  0  0  0  0  0
    4.7416   -7.3875    0.0000 C   0  0  0  0  0  0  0  0  0  0  0  0
    4.7416   -8.8875    0.0000 N   0  0  0  0  0  0  0  0  0  0  0  0
    3.4425   -6.6375    0.0000 N   0  0  0  0  0  0  0  0  0  0  0  0
    3.4425   -5.1375    0.0000 C   0  0  0  0  0  0  0  0  0  0  0  0
    2.1434   -4.3875    0.0000 N   0  0  0  0  0  0  0  0  0  0  0  0
    2.1434   -2.8875    0.0000 C   0  0  0  0  0  0  0  0  0  0  0  0
    0.8443   -2.1375    0.0000 C   0  0  0  0  0  0  0  0  0  0  0  0
    0.8443   -0.6375    0.0000 C   0  0  0  0  0  0  0  0  0  0  0  0
   -0.4546    0.1125    0.0000 O   0  0  0  0  0  0  0  0  0  0  0  0
   -0.4546   -2.8875    0.0000 C   0  0  0  0  0  0  0  0  0  0  0  0
   -1.7537   -3.6375    0.0000 C   0  0  0  0  0  0  0  0  0  0  0  0
   -1.2046   -1.5884    0.0000 C   0  0  0  0  0  0  0  0  0  0  0  0
    0.2954   -4.1866    0.0000 C   0  0  0  0  0  0  0  0  0  0  0  0
  1  2  1  0  0  0  0
  2  3  1  0  0  0  0
  2  4  1  0  0  0  0
  2  5  1  0  0  0  0
  5  6  2  0  0  0  0
  6  7  1  0  0  0  0
  7  8  1  0  0  0  0
  8  9  1  0  0  0  0
  9 10  2  0  0  0  0
 10 11  1  0  0  0  0
 11 12  2  0  0  0  0
 12 13  1  0  0  0  0
 12 14  1  0  0  0  0
 14 15  2  0  0  0  0
  9 15  1  0  0  0  0
 15 16  1  0  0  0  0
  7 17  2  0  0  0  0
 17 18  1  0  0  0  0
 18 19  2  0  0  0  0
  5 19  1  0  0  0  0
 19 20  1  0  0  0  0
 18 21  1  0  0  0  0
 21 22  1  0  0  0  0
 21 23  1  0  0  0  0
 21 24  1  0  0  0  0
M  END
> <Molecule Name>
CHEMBL277176

> <IUPAC>
2,6-di-tert-butyl-4-[(2,4-diaminopyrimidin-5-yl)methyl]phenol

> <ChEMBL_Data_Neisseria_g: NUM_RO5_VIOLATIONS>
0

> <ChEMBL_Data_Neisseria_g: Qualifier_for_MIC_Ng>
=

> <ChEMBL_Data_Neisseria_g: ASSAY_CHEMBLID>
CHEMBL753614

> <ChEMBL_Data_Neisseria_g: DESCRIPTION_of_Assay_Ng>
Inhibition of growth of Neisseria gonorrhoeae

> <ChEMBL_Data_Neisseria_g: PUBMED_ID>
3121854

> <ChEMBL_Data_Neisseria_g: YEAR>
1988

> <ChEMBL_Data_Neisseria_g: JOURNAL>
J. Med. Chem.

> <ChEMBL_Data_Neisseria_g: VOLUME>
31

> <ChEMBL_Data_Neisseria_g: FIRST_PAGE>
122

> <ChEMBL_Data_Neisseria_g: MIC_vs_Neisseria_microg_per_mL>
11.5

> <ALogP>
4.151

> <Active>
0

> <Molecular_Weight>
328.452

$$$$

Generated by Molecular Materials Informatics

 18 19  0  0  0  0  0  0  0  0999 V2000
   -1.2991   -0.4125    0.0000 O   0  0  0  0  0  0  0  0  0  0  0  0
   -1.2991   -1.9125    0.0000 C   0  0  0  0  0  0  0  0  0  0  0  0
   -2.5980   -2.6625    0.0000 C   0  0  0  0  0  0  0  0  0  0  0  0
   -2.5980   -4.1625    0.0000 C   0  0  0  0  0  0  0  0  0  0  0  0
   -3.8971   -4.9125    0.0000 Br  0  0  0  0  0  0  0  0  0  0  0  0
   -1.2991   -4.9125    0.0000 C   0  0  0  0  0  0  0  0  0  0  0  0
    0.0000   -4.1625    0.0000 C   0  0  0  0  0  0  0  0  0  0  0  0
    1.2991   -4.9125    0.0000 Br  0  0  0  0  0  0  0  0  0  0  0  0
    0.0000   -2.6625    0.0000 C   0  0  0  0  0  0  0  0  0  0  0  0
    1.2991   -1.9125    0.0000 O   0  0  0  0  0  0  0  0  0  0  0  0
    1.2991   -0.4125    0.0000 C   0  0  0  0  0  0  0  0  0  0  0  0
    0.0000    0.3375    0.0000 C   0  0  0  0  0  0  0  0  0  0  0  0
    0.0000    1.8375    0.0000 C   0  0  0  0  0  0  0  0  0  0  0  0
    1.2991    2.5875    0.0000 C   0  0  0  0  0  0  0  0  0  0  0  0
    1.2991    4.0875    0.0000 Br  0  0  0  0  0  0  0  0  0  0  0  0
    2.5980    1.8375    0.0000 C   0  0  0  0  0  0  0  0  0  0  0  0
    2.5980    0.3375    0.0000 C   0  0  0  0  0  0  0  0  0  0  0  0
    3.8971   -0.4125    0.0000 Br  0  0  0  0  0  0  0  0  0  0  0  0
  1  2  1  0  0  0  0
  2  3  2  0  0  0  0
  3  4  1  0  0  0  0
  4  5  1  0  0  0  0
  4  6  2  0  0  0  0
  6  7  1  0  0  0  0
  7  8  1  0  0  0  0
  7  9  2  0  0  0  0
  2  9  1  0  0  0  0
  9 10  1  0  0  0  0
 10 11  1  0  0  0  0
 11 12  2  0  0  0  0
 12 13  1  0  0  0  0
 13 14  2  0  0  0  0
 14 15  1  0  0  0  0
 14 16  1  0  0  0  0
 16 17  2  0  0  0  0
 11 17  1  0  0  0  0
 17 18  1  0  0  0  0
M  END
> <Molecule Name>
CHEMBL258224

> <IUPAC>
3,5-dibromo-2-(2,4-dibromophenoxy)phenol

> <Collections>
TrainingSet_Kleb_p_ALPerryman_JSF

> <ChEMBL_Data_Neisseria_g: NUM_RO5_VIOLATIONS>
2

> <ChEMBL_Data_Neisseria_g: Qualifier_for_MIC_Ng>
=

> <ChEMBL_Data_Neisseria_g: ASSAY_CHEMBLID>
CHEMBL3406232

> <ChEMBL_Data_Neisseria_g: DESCRIPTION_of_Assay_Ng>
Antimicrobial activity against Neisseria gonorrhoeae incubated at 37 degC for 24 hrs by broth macrodilution method

> <ChEMBL_Data_Neisseria_g: PUBMED_ID>
25863431

> <ChEMBL_Data_Neisseria_g: YEAR>
2015

> <ChEMBL_Data_Neisseria_g: JOURNAL>
Bioorg. Med. Chem. Lett.

> <ChEMBL_Data_Neisseria_g: VOLUME>
25

> <ChEMBL_Data_Neisseria_g: FIRST_PAGE>
2181

> <ChEMBL_Data_Neisseria_g: MIC_vs_Neisseria_microg_per_mL>
2

> <ALogP>
6.141

> <Active>
1

> <Molecular_Weight>
501.791

$$$$

Generated by Molecular Materials Informatics

 50 53  0  0  0  0  0  0  0  0999 V2000
   -0.2851   -4.2871    0.0000 C   0  0  0  0  0  0  0  0  0  0  0  0
    1.1874   -4.0107    0.0000 O   0  0  0  0  0  0  0  0  0  0  0  0
    1.6843   -2.5971    0.0000 C   0  0  0  0  0  0  0  0  0  0  0  0
    0.3360   -1.9261    0.0000 C   0  0  0  0  0  0  0  0  0  0  0  0
   -0.8252   -0.9408    0.0000 C   0  0  0  0  0  0  0  0  0  0  0  0
   -1.8668    0.2115    0.0000 O   0  0  0  0  0  0  0  0  0  0  0  0
   -1.9686    1.7752    0.0000 C   0  0  0  0  0  0  0  0  0  0  0  0
   -2.8724    2.9702    0.0000 C   0  0  0  0  0  0  0  0  0  0  0  0
   -0.5570    1.2740    0.0000 O   0  0  0  0  0  0  0  0  0  0  0  0
    0.4501    2.3675    0.0000 C   0  0  0  0  0  0  0  0  0  0  0  0
    1.9735    2.2652    0.0000 C   0  0  0  0  0  0  0  0  0  0  0  0
    2.6709    0.9393    0.0000 C   0  0  0  0  0  0  0  0  0  0  0  0
    2.7379    3.5536    0.0000 C   0  0  0  0  0  0  0  0  0  0  0  0
    4.2357    3.5155    0.0000 O   0  0  0  0  0  0  0  0  0  0  0  0
    2.0301    4.8979    0.0000 C   0  0  0  0  0  0  0  0  0  0  0  0
    2.8576    6.1594    0.0000 C   0  0  0  0  0  0  0  0  0  0  0  0
    4.3494    6.0197    0.0000 O   0  0  0  0  0  0  0  0  0  0  0  0
    2.2842    7.5393    0.0000 C   0  0  0  0  0  0  0  0  0  0  0  0
    0.7605    7.6025    0.0000 C   0  0  0  0  0  0  0  0  0  0  0  0
   -0.1027    6.4124    0.0000 C   0  0  0  0  0  0  0  0  0  0  0  0
   -1.5914    6.5818    0.0000 O   0  0  0  0  0  0  0  0  0  0  0  0
    0.4942    5.0049    0.0000 C   0  0  0  0  0  0  0  0  0  0  0  0
   -0.3461    3.6653    0.0000 C   0  0  0  0  0  0  0  0  0  0  0  0
   -1.8435    3.3071    0.0000 C   0  0  0  0  0  0  0  0  0  0  0  0
   -2.9810    4.2826    0.0000 O   0  0  0  0  0  0  0  0  0  0  0  0
    3.7575    8.0816    0.0000 N   0  0  0  0  0  0  0  0  0  0  0  0
    5.2976    8.1601    0.0000 C   0  0  0  0  0  0  0  0  0  0  0  0
    5.5291    9.6404    0.0000 O   0  0  0  0  0  0  0  0  0  0  0  0
    6.7832    7.5985    0.0000 C   0  0  0  0  0  0  0  0  0  0  0  0
    7.9978    6.5904    0.0000 C   0  0  0  0  0  0  0  0  0  0  0  0
    8.8855    5.2502    0.0000 C   0  0  0  0  0  0  0  0  0  0  0  0
    9.3374    3.8133    0.0000 C   0  0  0  0  0  0  0  0  0  0  0  0
    9.4002    2.3061    0.0000 C   0  0  0  0  0  0  0  0  0  0  0  0
   10.8926    2.1719    0.0000 C   0  0  0  0  0  0  0  0  0  0  0  0
    9.0702    0.8383    0.0000 C   0  0  0  0  0  0  0  0  0  0  0  0
   10.4769    0.3216    0.0000 O   0  0  0  0  0  0  0  0  0  0  0  0
    8.3718   -0.4940    0.0000 C   0  0  0  0  0  0  0  0  0  0  0  0
    9.5966   -1.3571    0.0000 C   0  0  0  0  0  0  0  0  0  0  0  0
    7.3520   -1.6003    0.0000 C   0  0  0  0  0  0  0  0  0  0  0  0
    8.3118   -2.7508    0.0000 O   0  0  0  0  0  0  0  0  0  0  0  0
    6.0812   -2.4046    0.0000 C   0  0  0  0  0  0  0  0  0  0  0  0
    6.7105   -3.7644    0.0000 C   0  0  0  0  0  0  0  0  0  0  0  0
    4.6465   -2.8529    0.0000 C   0  0  0  0  0  0  0  0  0  0  0  0
    4.9035   -4.3290    0.0000 O   0  0  0  0  0  0  0  0  0  0  0  0
    6.3103   -4.8444    0.0000 C   0  0  0  0  0  0  0  0  0  0  0  0
    7.4601   -3.8839    0.0000 O   0  0  0  0  0  0  0  0  0  0  0  0
    6.5672   -6.3206    0.0000 C   0  0  0  0  0  0  0  0  0  0  0  0
    3.1478   -2.9157    0.0000 C   0  0  0  0  0  0  0  0  0  0  0  0
    3.0187   -4.4086    0.0000 C   0  0  0  0  0  0  0  0  0  0  0  0
    7.5369    8.8934    0.0000 C   0  0  0  0  0  0  0  0  0  0  0  0
  1  2  1  0  0  0  0
  3  2  1  1  0  0  0
  3  4  1  0  0  0  0
  4  5  2  0  0  0  0
  5  6  1  0  0  0  0
  6  7  1  0  0  0  0
  7  8  1  1  0  0  0
  7  9  1  0  0  0  0
  9 10  1  0  0  0  0
 10 11  2  0  0  0  0
 11 12  1  0  0  0  0
 11 13  1  0  0  0  0
 13 14  1  0  0  0  0
 13 15  2  0  0  0  0
 15 16  1  0  0  0  0
 16 17  2  0  0  0  0
 16 18  1  0  0  0  0
 18 19  2  0  0  0  0
 19 20  1  0  0  0  0
 20 21  2  0  0  0  0
 20 22  1  0  0  0  0
 15 22  1  0  0  0  0
 22 23  2  0  0  0  0
 10 23  1  0  0  0  0
 23 24  1  0  0  0  0
  7 24  1  0  0  0  0
 24 25  2  0  0  0  0
 18 26  1  0  0  0  0
 26 27  1  0  0  0  0
 27 28  2  0  0  0  0
 27 29  1  0  0  0  0
 29 30  2  0  0  0  0
 30 31  1  0  0  0  0
 31 32  2  0  0  0  0
 32 33  1  0  0  0  0
 33 34  1  6  0  0  0
 33 35  1  0  0  0  0
 35 36  1  6  0  0  0
 35 37  1  0  0  0  0
 37 38  1  1  0  0  0
 37 39  1  0  0  0  0
 39 40  1  1  0  0  0
 39 41  1  0  0  0  0
 41 42  1  1  0  0  0
 41 43  1  0  0  0  0
 43 44  1  6  0  0  0
 44 45  1  0  0  0  0
 45 46  2  0  0  0  0
 45 47  1  0  0  0  0
 43 48  1  0  0  0  0
  3 48  1  0  0  0  0
 48 49  1  6  0  0  0
 29 50  1  0  0  0  0
M  END
> <Molecule Name>
CHEMBL236921

> <IUPAC>
(7S,9E,11S,12R,13S,14R,15R,16R,17S,18S,19E,21Z)-2,15,17-trihydroxy-11-methoxy-3,7,12,14,16,18,22-heptamethyl-6,23,27,29-tetraoxo-8,30-dioxa-24-azatetracyclo[23.3.1.1,.0,]triaconta-1,3,5(
28),9,19,21,25-heptaen-13-yl acetate

> <Collections>
Set2_NotListedAsBetaLactamResistant (mostly)

> <ChEMBL_Data_Neisseria_g: Molecule_Preferred_NAME>
RIFAMYCIN S

> <ChEMBL_Data_Neisseria_g: NUM_RO5_VIOLATIONS>
2

> <ChEMBL_Data_Neisseria_g: Qualifier_for_MIC_Ng>
=

> <ChEMBL_Data_Neisseria_g: ASSAY_CHEMBLID>
CHEMBL998303

> <ChEMBL_Data_Neisseria_g: DESCRIPTION_of_Assay_Ng>
Antibacterial activity against Neisseria gonorrhoeae

> <ChEMBL_Data_Neisseria_g: PUBMED_ID>
16378365

> <ChEMBL_Data_Neisseria_g: YEAR>
2005

> <ChEMBL_Data_Neisseria_g: JOURNAL>
J. Nat. Prod.

> <ChEMBL_Data_Neisseria_g: VOLUME>
68

> <ChEMBL_Data_Neisseria_g: FIRST_PAGE>
1736

> <ChEMBL_Data_Neisseria_g: MIC_vs_Neisseria_microg_per_mL>
0.1

> <ALogP>
2.779

> <Active>
1

> <Molecular_Weight>
695.753

$$$$

Generated by Molecular Materials Informatics

 13 13  0  0  0  0  0  0  0  0999 V2000
   -0.2923    4.6687    0.0000 C   0  0  0  0  0  0  0  0  0  0  0  0
    1.0068    3.9187    0.0000 O   0  0  0  0  0  0  0  0  0  0  0  0
    1.0068    2.4187    0.0000 C   0  0  0  0  0  0  0  0  0  0  0  0
    2.3057    1.6687    0.0000 C   0  0  0  0  0  0  0  0  0  0  0  0
    2.3057    0.1688    0.0000 C   0  0  0  0  0  0  0  0  0  0  0  0
    1.0068   -0.5812    0.0000 C   0  0  0  0  0  0  0  0  0  0  0  0
    1.0068   -2.0812    0.0000 C   0  0  0  0  0  0  0  0  0  0  0  0
   -0.2923   -2.8312    0.0000 C   0  0  0  0  0  0  0  0  0  0  0  0
   -0.2923   -4.3312    0.0000 N   0  4  0  0  0  0  0  0  0  0  0  0
    1.0068   -5.0813    0.0000 O   0  0  0  0  0  0  0  0  0  0  0  0
   -1.5913   -5.0813    0.0000 O   0  5  0  0  0  0  0  0  0  0  0  0
   -0.2923    0.1688    0.0000 C   0  0  0  0  0  0  0  0  0  0  0  0
   -0.2923    1.6687    0.0000 C   0  0  0  0  0  0  0  0  0  0  0  0
  1  2  1  0  0  0  0
  2  3  1  0  0  0  0
  3  4  2  0  0  0  0
  4  5  1  0  0  0  0
  5  6  2  0  0  0  0
  6  7  1  0  0  0  0
  7  8  2  0  0  0  0
  8  9  1  0  0  0  0
  9 10  2  0  0  0  0
  9 11  1  0  0  0  0
  6 12  1  0  0  0  0
 12 13  2  0  0  0  0
  3 13  1  0  0  0  0
M  CHG  1  11  -1
M  RAD  1   9   2
M  END
> <Molecule Name>
CHEMBL231046

> <IUPAC>
{hydroxy[(E)-2-(4-methoxyphenyl)ethenyl]amino}oxidanyl

> <ChEMBL_Data_Neisseria_g: NUM_RO5_VIOLATIONS>
0

> <ChEMBL_Data_Neisseria_g: Qualifier_for_MIC_Ng>
=

> <ChEMBL_Data_Neisseria_g: ASSAY_CHEMBLID>
CHEMBL1073951

> <ChEMBL_Data_Neisseria_g: DESCRIPTION_of_Assay_Ng>
Antimicrobial activity against Neisseria gonorrhoeae ATCC 49226 by broth microdilution susceptibility assay

> <ChEMBL_Data_Neisseria_g: PUBMED_ID>
19709889

> <ChEMBL_Data_Neisseria_g: YEAR>
2009

> <ChEMBL_Data_Neisseria_g: JOURNAL>
Bioorg. Med. Chem.

> <ChEMBL_Data_Neisseria_g: VOLUME>
17

> <ChEMBL_Data_Neisseria_g: FIRST_PAGE>
6606

> <ChEMBL_Data_Neisseria_g: MIC_vs_Neisseria_microg_per_mL>
2

> <ALogP>
1.793

> <Active>
1

> <Molecular_Weight>
179.173

> <ChEMBL_Data_Neisseria_g: STRAIN_of_Ng>
ATCC 49226

$$$$

Generated by Molecular Materials Informatics

 12 12  0  0  0  0  0  0  0  0999 V2000
    1.5914    2.5687    0.0000 O   0  0  0  0  0  0  0  0  0  0  0  0
    1.5914    1.0687    0.0000 C   0  0  0  0  0  0  0  0  0  0  0  0
    2.8903    0.3188    0.0000 C   0  0  0  0  0  0  0  0  0  0  0  0
    2.8903   -1.1812    0.0000 C   0  0  0  0  0  0  0  0  0  0  0  0
    1.5914   -1.9312    0.0000 C   0  0  0  0  0  0  0  0  0  0  0  0
    0.2923   -1.1812    0.0000 C   0  0  0  0  0  0  0  0  0  0  0  0
    0.2923    0.3188    0.0000 C   0  0  0  0  0  0  0  0  0  0  0  0
   -1.0068    1.0687    0.0000 C   0  0  0  0  0  0  0  0  0  0  0  0
   -1.0068    2.5687    0.0000 C   0  0  0  0  0  0  0  0  0  0  0  0
   -2.3057    3.3187    0.0000 N   0  4  0  0  0  0  0  0  0  0  0  0
   -3.6048    2.5687    0.0000 O   0  0  0  0  0  0  0  0  0  0  0  0
   -2.3057    4.8187    0.0000 O   0  5  0  0  0  0  0  0  0  0  0  0
  1  2  1  0  0  0  0
  2  3  2  0  0  0  0
  3  4  1  0  0  0  0
  4  5  2  0  0  0  0
  5  6  1  0  0  0  0
  6  7  2  0  0  0  0
  2  7  1  0  0  0  0
  7  8  1  0  0  0  0
  8  9  2  0  0  0  0
  9 10  1  0  0  0  0
 10 11  2  0  0  0  0
 10 12  1  0  0  0  0
M  CHG  1  12  -1
M  RAD  1  10   2
M  END
> <Molecule Name>
CHEMBL231045

> <IUPAC>
{hydroxy[(E)-2-(2-hydroxyphenyl)ethenyl]amino}oxidanyl

> <ChEMBL_Data_Neisseria_g: NUM_RO5_VIOLATIONS>
0

> <ChEMBL_Data_Neisseria_g: Qualifier_for_MIC_Ng>
=

> <ChEMBL_Data_Neisseria_g: ASSAY_CHEMBLID>
CHEMBL1073951

> <ChEMBL_Data_Neisseria_g: DESCRIPTION_of_Assay_Ng>
Antimicrobial activity against Neisseria gonorrhoeae ATCC 49226 by broth microdilution susceptibility assay

> <ChEMBL_Data_Neisseria_g: PUBMED_ID>
19709889

> <ChEMBL_Data_Neisseria_g: YEAR>
2009

> <ChEMBL_Data_Neisseria_g: JOURNAL>
Bioorg. Med. Chem.

> <ChEMBL_Data_Neisseria_g: VOLUME>
17

> <ChEMBL_Data_Neisseria_g: FIRST_PAGE>
6606

> <ChEMBL_Data_Neisseria_g: MIC_vs_Neisseria_microg_per_mL>
2

> <ALogP>
1.568

> <Active>
1

> <Molecular_Weight>
165.146

> <ChEMBL_Data_Neisseria_g: STRAIN_of_Ng>
ATCC 49226

$$$$

Generated by Molecular Materials Informatics

 31 33  0  0  0  0  0  0  0  0999 V2000
    2.3030   -1.4049    0.0000 C   0  0  0  0  0  0  0  0  0  0  0  0
    0.8936   -0.8920    0.0000 C   0  0  0  0  0  0  0  0  0  0  0  0
   -0.2555   -1.8562    0.0000 C   0  0  0  0  0  0  0  0  0  0  0  0
   -1.6651   -1.3431    0.0000 C   0  0  0  0  0  0  0  0  0  0  0  0
   -1.9255    0.1341    0.0000 C   0  0  0  0  0  0  0  0  0  0  0  0
   -0.7764    1.0983    0.0000 C   0  0  0  0  0  0  0  0  0  0  0  0
   -1.0369    2.5754    0.0000 C   0  0  0  0  0  0  0  0  0  0  0  0
    0.6331    0.5852    0.0000 C   0  0  0  0  0  0  0  0  0  0  0  0
    1.1951    1.9759    0.0000 C   0  0  0  0  0  0  0  0  0  0  0  0
    2.1003    0.8970    0.0000 C   0  0  0  0  0  0  0  0  0  0  0  0
    3.1039   -0.2177    0.0000 C   0  0  0  0  0  0  0  0  0  0  0  0
    4.5712    0.0941    0.0000 C   0  0  0  0  0  0  0  0  0  0  0  0
    5.5748   -1.0206    0.0000 C   0  0  0  0  0  0  0  0  0  0  0  0
    7.0421   -0.7086    0.0000 C   0  0  0  0  0  0  0  0  0  0  0  0
    8.0457   -1.8233    0.0000 C   0  0  0  0  0  0  0  0  0  0  0  0
    9.5129   -1.5115    0.0000 C   0  0  0  0  0  0  0  0  0  0  0  0
   10.5166   -2.6262    0.0000 C   0  0  0  0  0  0  0  0  0  0  0  0
   11.9838   -2.3144    0.0000 C   0  0  0  0  0  0  0  0  0  0  0  0
   12.4473   -0.8877    0.0000 N   0  0  0  0  0  0  0  0  0  0  0  0
   11.5657    0.3258    0.0000 C   0  0  0  0  0  0  0  0  0  0  0  0
   12.4473    1.5392    0.0000 N   0  0  0  0  0  0  0  0  0  0  0  0
   11.9838    2.9659    0.0000 C   0  0  0  0  0  0  0  0  0  0  0  0
   13.8740    1.0757    0.0000 C   0  0  0  0  0  0  0  0  0  0  0  0
   15.1729    1.8257    0.0000 N   0  0  0  0  0  0  0  0  0  0  0  0
   16.4720    1.0757    0.0000 C   0  0  0  0  0  0  0  0  0  0  0  0
   16.4720   -0.4242    0.0000 N   0  0  0  0  0  0  0  0  0  0  0  0
   15.1729   -1.1742    0.0000 C   0  0  0  0  0  0  0  0  0  0  0  0
   15.1729   -2.6742    0.0000 N   0  0  0  0  0  0  0  0  0  0  0  0
   13.8740   -0.4242    0.0000 C   0  0  0  0  0  0  0  0  0  0  0  0
    9.9764   -0.0850    0.0000 C   0  0  0  0  0  0  0  0  0  0  0  0
    5.0346    1.5208    0.0000 C   0  0  0  0  0  0  0  0  0  0  0  0
  2  1  1  1  0  0  0
  2  3  1  0  0  0  0
  3  4  1  0  0  0  0
  4  5  1  0  0  0  0
  5  6  2  0  0  0  0
  6  7  1  0  0  0  0
  6  8  1  0  0  0  0
  2  8  1  0  0  0  0
  8  9  1  1  0  0  0
  8 10  1  6  0  0  0
 10 11  1  0  0  0  0
 11 12  1  0  0  0  0
 12 13  2  0  0  0  0
 13 14  1  0  0  0  0
 14 15  1  0  0  0  0
 15 16  1  0  0  0  0
 16 17  2  0  0  0  0
 17 18  1  0  0  0  0
 18 19  1  0  0  0  0
 19 20  2  0  0  0  0
 20 21  1  0  0  0  0
 21 22  1  0  0  0  0
 21 23  2  0  0  0  0
 23 24  1  0  0  0  0
 24 25  1  0  0  0  0
 25 26  2  0  0  0  0
 26 27  1  0  0  0  0
 27 28  1  0  0  0  0
 27 29  2  0  0  0  0
 19 29  1  0  0  0  0
 23 29  1  0  0  0  0
 16 30  1  0  0  0  0
 12 31  1  0  0  0  0
M  END
> <Molecule Name>
CHEMBL193838

> <IUPAC>
7-[(2E,6E)-3,7-dimethyl-9-[(1R,6S)-1,2,6-trimethylcyclohex-2-en-1-yl]nona-2,6-dien-1-yl]-9-methylpurin-6-amine hydrochloride

> <ChEMBL_Data_Neisseria_g: Molecule_Preferred_NAME>
AGELINE A

> <ChEMBL_Data_Neisseria_g: NUM_RO5_VIOLATIONS>
1

> <ChEMBL_Data_Neisseria_g: Qualifier_for_MIC_Ng>
=

> <ChEMBL_Data_Neisseria_g: ASSAY_CHEMBLID>
CHEMBL2344781

> <ChEMBL_Data_Neisseria_g: DESCRIPTION_of_Assay_Ng>
Antimicrobial activity against Neisseria gonorrhoeae ATCC 49226 by NCCLS broth microdilution assay

> <ChEMBL_Data_Neisseria_g: PUBMED_ID>
23410078

> <ChEMBL_Data_Neisseria_g: YEAR>
2013

> <ChEMBL_Data_Neisseria_g: JOURNAL>
J. Nat. Prod.

> <ChEMBL_Data_Neisseria_g: VOLUME>
76

> <ChEMBL_Data_Neisseria_g: FIRST_PAGE>
420

> <ChEMBL_Data_Neisseria_g: MIC_vs_Neisseria_microg_per_mL>
2

> <ALogP>
2.56

> <Active>
1

> <Molecular_Weight>
429.685

> <ChEMBL_Data_Neisseria_g: STRAIN_of_Ng>
ATCC 49226

$$$$

Generated by Molecular Materials Informatics

 21 23  0  0  0  0  0  0  0  0999 V2000
    2.9666    2.7375    0.0000 O   0  0  0  0  0  0  0  0  0  0  0  0
    2.9666    1.2375    0.0000 B   0  0  0  0  0  0  0  0  0  0  0  0
    4.2657    0.4875    0.0000 N   0  0  0  0  0  0  0  0  0  0  0  0
    4.2657   -1.0125    0.0000 C   0  0  0  0  0  0  0  0  0  0  0  0
    2.9666   -1.7625    0.0000 C   0  0  0  0  0  0  0  0  0  0  0  0
    1.6677   -1.0125    0.0000 C   0  0  0  0  0  0  0  0  0  0  0  0
    0.2410   -1.4760    0.0000 C   0  0  0  0  0  0  0  0  0  0  0  0
   -0.6407   -0.2625    0.0000 C   0  0  0  0  0  0  0  0  0  0  0  0
   -2.1407   -0.2625    0.0000 Br  0  0  0  0  0  0  0  0  0  0  0  0
    0.2410    0.9510    0.0000 S   0  0  0  0  0  0  0  0  0  0  0  0
    1.6677    0.4875    0.0000 C   0  0  0  0  0  0  0  0  0  0  0  0
    5.5648    1.2375    0.0000 S   0  0  0  0  0  0  0  0  0  0  0  0
    6.3148   -0.0616    0.0000 O   0  0  0  0  0  0  0  0  0  0  0  0
    4.8148    2.5366    0.0000 O   0  0  0  0  0  0  0  0  0  0  0  0
    6.8637    1.9875    0.0000 C   0  0  0  0  0  0  0  0  0  0  0  0
    6.8637    3.4875    0.0000 C   0  0  0  0  0  0  0  0  0  0  0  0
    8.1628    4.2375    0.0000 C   0  0  0  0  0  0  0  0  0  0  0  0
    9.4619    3.4875    0.0000 C   0  0  0  0  0  0  0  0  0  0  0  0
    9.4619    1.9875    0.0000 C   0  0  0  0  0  0  0  0  0  0  0  0
    8.1628    1.2375    0.0000 C   0  0  0  0  0  0  0  0  0  0  0  0
    8.1628   -0.2625    0.0000 Cl  0  0  0  0  0  0  0  0  0  0  0  0
  1  2  1  0  0  0  0
  2  3  1  0  0  0  0
  3  4  1  0  0  0  0
  4  5  2  0  0  0  0
  5  6  1  0  0  0  0
  6  7  1  0  0  0  0
  7  8  2  0  0  0  0
  8  9  1  0  0  0  0
  8 10  1  0  0  0  0
 10 11  1  0  0  0  0
  2 11  1  0  0  0  0
  6 11  2  0  0  0  0
  3 12  1  0  0  0  0
 12 13  2  0  0  0  0
 12 14  2  0  0  0  0
 12 15  1  0  0  0  0
 15 16  2  0  0  0  0
 16 17  1  0  0  0  0
 17 18  2  0  0  0  0
 18 19  1  0  0  0  0
 19 20  2  0  0  0  0
 15 20  1  0  0  0  0
 20 21  1  0  0  0  0
M  END
> <Molecule Name>
CHEMBL177140

> <IUPAC>
6-bromo-2-(2-chlorobenzenesulfonyl)-1H,2H-thieno[2,3-c][1,2]azaborinin-1-ol

> <Collections>
TrainingSet_Kleb_p_ALPerryman_JSF

> <ChEMBL_Data_Neisseria_g: Qualifier_for_MIC_Ng>
>

> <ChEMBL_Data_Neisseria_g: ASSAY_CHEMBLID>
CHEMBL753615

> <ChEMBL_Data_Neisseria_g: DESCRIPTION_of_Assay_Ng>
Minimum inhibitory concentration of compound against Neisseria gonorrhoeae AS 7720

> <ChEMBL_Data_Neisseria_g: PUBMED_ID>
6379179

> <ChEMBL_Data_Neisseria_g: YEAR>
1984

> <ChEMBL_Data_Neisseria_g: JOURNAL>
J. Med. Chem.

> <ChEMBL_Data_Neisseria_g: VOLUME>
27

> <ChEMBL_Data_Neisseria_g: FIRST_PAGE>
947

> <ChEMBL_Data_Neisseria_g: MIC_vs_Neisseria_microg_per_mL>
8

> <ALogP>
3.677

> <Active>
0

> <Molecular_Weight>
404.495

$$$$

Generated by Molecular Materials Informatics

 22 24  0  0  0  0  0  0  0  0999 V2000
   -3.3630    1.2760    0.0000 C   0  0  0  0  0  0  0  0  0  0  0  0
   -2.6130   -0.0229    0.0000 C   0  0  0  0  0  0  0  0  0  0  0  0
   -1.1130   -0.0229    0.0000 C   0  0  0  0  0  0  0  0  0  0  0  0
   -0.2314    1.1906    0.0000 C   0  0  0  0  0  0  0  0  0  0  0  0
    1.1952    0.7271    0.0000 C   0  0  0  0  0  0  0  0  0  0  0  0
    2.4943    1.4771    0.0000 C   0  0  0  0  0  0  0  0  0  0  0  0
    3.7933    0.7271    0.0000 C   0  0  0  0  0  0  0  0  0  0  0  0
    3.7933   -0.7729    0.0000 N   0  0  0  0  0  0  0  0  0  0  0  0
    2.4943   -1.5229    0.0000 B   0  0  0  0  0  0  0  0  0  0  0  0
    2.4943   -3.0229    0.0000 O   0  0  0  0  0  0  0  0  0  0  0  0
    1.1952   -0.7729    0.0000 C   0  0  0  0  0  0  0  0  0  0  0  0
   -0.2314   -1.2365    0.0000 S   0  0  0  0  0  0  0  0  0  0  0  0
    5.0924   -1.5229    0.0000 S   0  0  0  0  0  0  0  0  0  0  0  0
    4.3424   -2.8220    0.0000 O   0  0  0  0  0  0  0  0  0  0  0  0
    5.8424   -0.2240    0.0000 O   0  0  0  0  0  0  0  0  0  0  0  0
    6.3913   -2.2729    0.0000 C   0  0  0  0  0  0  0  0  0  0  0  0
    7.6904   -1.5229    0.0000 C   0  0  0  0  0  0  0  0  0  0  0  0
    8.9895   -2.2729    0.0000 C   0  0  0  0  0  0  0  0  0  0  0  0
    8.9895   -3.7729    0.0000 C   0  0  0  0  0  0  0  0  0  0  0  0
    7.6904   -4.5229    0.0000 C   0  0  0  0  0  0  0  0  0  0  0  0
    6.3913   -3.7729    0.0000 C   0  0  0  0  0  0  0  0  0  0  0  0
    5.0924   -4.5229    0.0000 Cl  0  0  0  0  0  0  0  0  0  0  0  0
  1  2  1  0  0  0  0
  2  3  1  0  0  0  0
  3  4  2  0  0  0  0
  4  5  1  0  0  0  0
  5  6  1  0  0  0  0
  6  7  2  0  0  0  0
  7  8  1  0  0  0  0
  8  9  1  0  0  0  0
  9 10  1  0  0  0  0
  9 11  1  0  0  0  0
  5 11  2  0  0  0  0
 11 12  1  0  0  0  0
  3 12  1  0  0  0  0
  8 13  1  0  0  0  0
 13 14  2  0  0  0  0
 13 15  2  0  0  0  0
 13 16  1  0  0  0  0
 16 17  2  0  0  0  0
 17 18  1  0  0  0  0
 18 19  2  0  0  0  0
 19 20  1  0  0  0  0
 20 21  2  0  0  0  0
 16 21  1  0  0  0  0
 21 22  1  0  0  0  0
M  END
> <Molecule Name>
CHEMBL177139

> <IUPAC>
2-(2-chlorobenzenesulfonyl)-6-ethyl-1H,2H-thieno[2,3-c][1,2]azaborinin-1-ol

> <Collections>
TrainingSet_Kleb_p_ALPerryman_JSF

> <ChEMBL_Data_Neisseria_g: Qualifier_for_MIC_Ng>
=

> <ChEMBL_Data_Neisseria_g: ASSAY_CHEMBLID>
CHEMBL858169

> <ChEMBL_Data_Neisseria_g: DESCRIPTION_of_Assay_Ng>
Minimum inhibitory concentration of compound against Neisseria gonorrhoeae W2

> <ChEMBL_Data_Neisseria_g: PUBMED_ID>
6379179

> <ChEMBL_Data_Neisseria_g: YEAR>
1984

> <ChEMBL_Data_Neisseria_g: JOURNAL>
J. Med. Chem.

> <ChEMBL_Data_Neisseria_g: VOLUME>
27

> <ChEMBL_Data_Neisseria_g: FIRST_PAGE>
947

> <ChEMBL_Data_Neisseria_g: MIC_vs_Neisseria_microg_per_mL>
1

> <ALogP>
3.921

> <Active>
1

> <Molecular_Weight>
353.652

$$$$

Generated by Molecular Materials Informatics

 22 24  0  0  0  0  0  0  0  0999 V2000
   -3.3629   -2.6719    0.0000 C   0  0  0  0  0  0  0  0  0  0  0  0
   -2.6129   -1.3729    0.0000 C   0  0  0  0  0  0  0  0  0  0  0  0
   -1.1130   -1.3729    0.0000 C   0  0  0  0  0  0  0  0  0  0  0  0
   -0.2313   -0.1594    0.0000 C   0  0  0  0  0  0  0  0  0  0  0  0
    1.1952   -0.6229    0.0000 C   0  0  0  0  0  0  0  0  0  0  0  0
    2.4943    0.1271    0.0000 B   0  0  0  0  0  0  0  0  0  0  0  0
    2.4943    1.6271    0.0000 O   0  0  0  0  0  0  0  0  0  0  0  0
    3.7933   -0.6229    0.0000 N   0  0  0  0  0  0  0  0  0  0  0  0
    3.7933   -2.1229    0.0000 N   0  0  0  0  0  0  0  0  0  0  0  0
    2.4943   -2.8729    0.0000 C   0  0  0  0  0  0  0  0  0  0  0  0
    1.1952   -2.1229    0.0000 C   0  0  0  0  0  0  0  0  0  0  0  0
   -0.2313   -2.5865    0.0000 S   0  0  0  0  0  0  0  0  0  0  0  0
    5.0924    0.1271    0.0000 S   0  0  0  0  0  0  0  0  0  0  0  0
    5.8424   -1.1720    0.0000 O   0  0  0  0  0  0  0  0  0  0  0  0
    4.3424    1.4260    0.0000 O   0  0  0  0  0  0  0  0  0  0  0  0
    6.3913    0.8771    0.0000 C   0  0  0  0  0  0  0  0  0  0  0  0
    6.3913    2.3771    0.0000 C   0  0  0  0  0  0  0  0  0  0  0  0
    7.6904    3.1271    0.0000 C   0  0  0  0  0  0  0  0  0  0  0  0
    8.9894    2.3771    0.0000 C   0  0  0  0  0  0  0  0  0  0  0  0
    8.9894    0.8771    0.0000 C   0  0  0  0  0  0  0  0  0  0  0  0
    7.6904    0.1271    0.0000 C   0  0  0  0  0  0  0  0  0  0  0  0
    7.6904   -1.3729    0.0000 Cl  0  0  0  0  0  0  0  0  0  0  0  0
  1  2  1  0  0  0  0
  2  3  1  0  0  0  0
  3  4  2  0  0  0  0
  4  5  1  0  0  0  0
  5  6  1  0  0  0  0
  6  7  1  0  0  0  0
  6  8  1  0  0  0  0
  8  9  1  0  0  0  0
  9 10  2  0  0  0  0
 10 11  1  0  0  0  0
  5 11  2  0  0  0  0
 11 12  1  0  0  0  0
  3 12  1  0  0  0  0
  8 13  1  0  0  0  0
 13 14  2  0  0  0  0
 13 15  2  0  0  0  0
 13 16  1  0  0  0  0
 16 17  2  0  0  0  0
 17 18  1  0  0  0  0
 18 19  2  0  0  0  0
 19 20  1  0  0  0  0
 20 21  2  0  0  0  0
 16 21  1  0  0  0  0
 21 22  1  0  0  0  0
M  END
> <Molecule Name>
CHEMBL177128

> <IUPAC>
2-(2-chlorobenzenesulfonyl)-6-ethyl-1H,2H-thieno[3,2-d][1,2,3]diazaborinin-1-ol

> <Collections>
TrainingSet_Kleb_p_ALPerryman_JSF

> <ChEMBL_Data_Neisseria_g: Qualifier_for_MIC_Ng>
=

> <ChEMBL_Data_Neisseria_g: ASSAY_CHEMBLID>
CHEMBL858169

> <ChEMBL_Data_Neisseria_g: DESCRIPTION_of_Assay_Ng>
Minimum inhibitory concentration of compound against Neisseria gonorrhoeae W2

> <ChEMBL_Data_Neisseria_g: PUBMED_ID>
6379179

> <ChEMBL_Data_Neisseria_g: YEAR>
1984

> <ChEMBL_Data_Neisseria_g: JOURNAL>
J. Med. Chem.

> <ChEMBL_Data_Neisseria_g: VOLUME>
27

> <ChEMBL_Data_Neisseria_g: FIRST_PAGE>
947

> <ChEMBL_Data_Neisseria_g: MIC_vs_Neisseria_microg_per_mL>
1

> <ALogP>
4.334

> <Active>
1

> <Molecular_Weight>
354.64

$$$$

Generated by Molecular Materials Informatics

 17 18  0  0  0  0  0  0  0  0999 V2000
    7.4765    5.6044    0.0000 C   0  0  0  0  0  0  0  0  0  0  0  0
    6.1774    4.8544    0.0000 C   0  0  0  0  0  0  0  0  0  0  0  0
    6.1774    3.3544    0.0000 C   0  0  0  0  0  0  0  0  0  0  0  0
    4.8785    2.6044    0.0000 S   0  0  0  0  0  0  0  0  0  0  0  0
    4.1285    3.9035    0.0000 O   0  0  0  0  0  0  0  0  0  0  0  0
    5.6285    1.3055    0.0000 O   0  0  0  0  0  0  0  0  0  0  0  0
    3.5794    1.8544    0.0000 N   0  0  0  0  0  0  0  0  0  0  0  0
    3.5794    0.3544    0.0000 N   0  0  0  0  0  0  0  0  0  0  0  0
    2.2803   -0.3956    0.0000 C   0  0  0  0  0  0  0  0  0  0  0  0
    0.9812    0.3544    0.0000 C   0  0  0  0  0  0  0  0  0  0  0  0
    0.9812    1.8544    0.0000 C   0  0  0  0  0  0  0  0  0  0  0  0
   -0.4453    2.3180    0.0000 C   0  0  0  0  0  0  0  0  0  0  0  0
   -1.3270    1.1044    0.0000 C   0  0  0  0  0  0  0  0  0  0  0  0
   -0.4453   -0.1091    0.0000 N   0  0  0  0  0  0  0  0  0  0  0  0
   -0.9088   -1.5356    0.0000 C   0  0  0  0  0  0  0  0  0  0  0  0
    2.2803    2.6044    0.0000 B   0  0  0  0  0  0  0  0  0  0  0  0
    2.2803    4.1044    0.0000 O   0  0  0  0  0  0  0  0  0  0  0  0
  1  2  1  0  0  0  0
  2  3  1  0  0  0  0
  3  4  1  0  0  0  0
  4  5  2  0  0  0  0
  4  6  2  0  0  0  0
  4  7  1  0  0  0  0
  7  8  1  0  0  0  0
  8  9  2  0  0  0  0
  9 10  1  0  0  0  0
 10 11  2  0  0  0  0
 11 12  1  0  0  0  0
 12 13  2  0  0  0  0
 13 14  1  0  0  0  0
 10 14  1  0  0  0  0
 14 15  1  0  0  0  0
 11 16  1  0  0  0  0
  7 16  1  0  0  0  0
 16 17  1  0  0  0  0
M  END
> <Molecule Name>
CHEMBL177027

> <IUPAC>
5-methyl-2-(propane-1-sulfonyl)-1H,2H,5H-pyrrolo[3,2-d][1,2,3]diazaborinin-1-ol

> <Collections>
TrainingSet_Kleb_p_ALPerryman_JSF

> <ChEMBL_Data_Neisseria_g: Qualifier_for_MIC_Ng>
>

> <ChEMBL_Data_Neisseria_g: ASSAY_CHEMBLID>
CHEMBL753615

> <ChEMBL_Data_Neisseria_g: DESCRIPTION_of_Assay_Ng>
Minimum inhibitory concentration of compound against Neisseria gonorrhoeae AS 7720

> <ChEMBL_Data_Neisseria_g: PUBMED_ID>
6379179

> <ChEMBL_Data_Neisseria_g: YEAR>
1984

> <ChEMBL_Data_Neisseria_g: JOURNAL>
J. Med. Chem.

> <ChEMBL_Data_Neisseria_g: VOLUME>
27

> <ChEMBL_Data_Neisseria_g: FIRST_PAGE>
947

> <ChEMBL_Data_Neisseria_g: MIC_vs_Neisseria_microg_per_mL>
8

> <ALogP>
1.79

> <Active>
0

> <Molecular_Weight>
255.102

$$$$

Generated by Molecular Materials Informatics

 45 51  0  0  0  0  0  0  0  0999 V2000
   -3.3639   -5.2810    0.0000 C   0  0  0  0  0  0  0  0  0  0  0  0
   -1.8968   -5.5932    0.0000 O   0  0  0  0  0  0  0  0  0  0  0  0
   -0.8928   -4.4788    0.0000 C   0  0  0  0  0  0  0  0  0  0  0  0
   -1.3559   -3.0521    0.0000 O   0  0  0  0  0  0  0  0  0  0  0  0
    0.5743   -4.7912    0.0000 C   0  0  0  0  0  0  0  0  0  0  0  0
    1.5783   -3.6767    0.0000 C   0  0  0  0  0  0  0  0  0  0  0  0
    3.0456   -3.9890    0.0000 C   0  0  0  0  0  0  0  0  0  0  0  0
    4.0496   -2.8746    0.0000 C   0  0  0  0  0  0  0  0  0  0  0  0
    5.5167   -3.1868    0.0000 C   0  0  0  0  0  0  0  0  0  0  0  0
    6.5207   -2.0725    0.0000 C   0  0  0  0  0  0  0  0  0  0  0  0
    6.0576   -0.6457    0.0000 O   0  0  0  0  0  0  0  0  0  0  0  0
    7.9878   -2.3848    0.0000 C   0  0  0  0  0  0  0  0  0  0  0  0
    8.4509   -3.8114    0.0000 C   0  0  0  0  0  0  0  0  0  0  0  0
    9.0608   -5.1819    0.0000 C   0  0  0  0  0  0  0  0  0  0  0  0
   10.5526   -5.0256    0.0000 C   0  0  0  0  0  0  0  0  0  0  0  0
   10.8648   -3.5585    0.0000 C   0  0  0  0  0  0  0  0  0  0  0  0
    9.5660   -2.8081    0.0000 O   0  0  0  0  0  0  0  0  0  0  0  0
   12.2915   -3.0954    0.0000 C   0  0  0  0  0  0  0  0  0  0  0  0
   12.6039   -1.6283    0.0000 O   0  0  0  0  0  0  0  0  0  0  0  0
   13.4061   -4.0994    0.0000 C   0  0  0  0  0  0  0  0  0  0  0  0
   14.8328   -3.6363    0.0000 C   0  0  0  0  0  0  0  0  0  0  0  0
   15.1450   -2.1692    0.0000 O   0  0  0  0  0  0  0  0  0  0  0  0
   15.9472   -4.6403    0.0000 C   0  0  0  0  0  0  0  0  0  0  0  0
   17.3739   -4.1772    0.0000 N   0  0  0  0  0  0  0  0  0  0  0  0
   17.6863   -2.7101    0.0000 C   0  0  0  0  0  0  0  0  0  0  0  0
   19.1130   -2.2470    0.0000 C   0  0  0  0  0  0  0  0  0  0  0  0
   19.4252   -0.7799    0.0000 C   0  0  0  0  0  0  0  0  0  0  0  0
   20.8519   -0.3166    0.0000 C   0  0  0  0  0  0  0  0  0  0  0  0
   21.9665   -1.3208    0.0000 C   0  0  0  0  0  0  0  0  0  0  0  0
   21.6541   -2.7879    0.0000 C   0  0  0  0  0  0  0  0  0  0  0  0
   20.2274   -3.2510    0.0000 C   0  0  0  0  0  0  0  0  0  0  0  0
   15.6348   -6.1074    0.0000 C   0  0  0  0  0  0  0  0  0  0  0  0
   14.2081   -6.5705    0.0000 C   0  0  0  0  0  0  0  0  0  0  0  0
   13.8959   -8.0378    0.0000 O   0  0  0  0  0  0  0  0  0  0  0  0
   13.0937   -5.5665    0.0000 C   0  0  0  0  0  0  0  0  0  0  0  0
   11.6670   -6.0296    0.0000 C   0  0  0  0  0  0  0  0  0  0  0  0
   11.3548   -7.4969    0.0000 O   0  0  0  0  0  0  0  0  0  0  0  0
    7.4469   -4.9259    0.0000 O   0  0  0  0  0  0  0  0  0  0  0  0
    5.9798   -4.6136    0.0000 C   0  0  0  0  0  0  0  0  0  0  0  0
    4.9758   -5.7279    0.0000 C   0  0  0  0  0  0  0  0  0  0  0  0
    5.4389   -7.1547    0.0000 O   0  0  0  0  0  0  0  0  0  0  0  0
    3.5087   -5.4158    0.0000 C   0  0  0  0  0  0  0  0  0  0  0  0
    2.5047   -6.5301    0.0000 C   0  0  0  0  0  0  0  0  0  0  0  0
    2.9678   -7.9569    0.0000 O   0  0  0  0  0  0  0  0  0  0  0  0
    1.0374   -6.2179    0.0000 O   0  0  0  0  0  0  0  0  0  0  0  0
  1  2  1  0  0  0  0
  2  3  1  0  0  0  0
  3  4  2  0  0  0  0
  3  5  1  0  0  0  0
  5  6  2  0  0  0  0
  6  7  1  0  0  0  0
  7  8  2  0  0  0  0
  8  9  1  0  0  0  0
  9 10  1  0  0  0  0
 10 11  1  0  0  0  0
 10 12  1  0  0  0  0
 12 13  1  0  0  0  0
 13 14  1  0  0  0  0
 14 15  1  0  0  0  0
 15 16  2  0  0  0  0
 16 17  1  0  0  0  0
 13 17  1  0  0  0  0
 16 18  1  0  0  0  0
 18 19  2  0  0  0  0
 18 20  1  0  0  0  0
 20 21  2  0  0  0  0
 21 22  1  0  0  0  0
 21 23  1  0  0  0  0
 23 24  1  0  0  0  0
 24 25  1  0  0  0  0
 25 26  1  0  0  0  0
 26 27  2  0  0  0  0
 27 28  1  0  0  0  0
 28 29  2  0  0  0  0
 29 30  1  0  0  0  0
 30 31  2  0  0  0  0
 26 31  1  0  0  0  0
 23 32  2  0  0  0  0
 32 33  1  0  0  0  0
 33 34  1  0  0  0  0
 33 35  2  0  0  0  0
 20 35  1  0  0  0  0
 35 36  1  0  0  0  0
 15 36  1  0  0  0  0
 36 37  2  0  0  0  0
 13 38  1  0  0  0  0
 38 39  1  0  0  0  0
  9 39  2  0  0  0  0
 39 40  1  0  0  0  0
 40 41  1  0  0  0  0
 40 42  2  0  0  0  0
  7 42  1  0  0  0  0
 42 43  1  0  0  0  0
 43 44  2  0  0  0  0
 43 45  1  0  0  0  0
  5 45  1  0  0  0  0
M  END
> <Molecule Name>
CHEMBL176586

> <IUPAC>
methyl 7-(benzylamino)-4',5,8,10'-tetrahydroxy-4,9,9'-trioxo-4,4',9,9'-tetrahydro-3H,3'H-spiro[naphtho[2,3-b]furan-2,2'-pyrano[3,2-g]isochromene]-7'-carboxylate

> <Collections>
Set2_NotListedAsBetaLactamResistant (mostly)

> <ChEMBL_Data_Neisseria_g: NUM_RO5_VIOLATIONS>
2

> <ChEMBL_Data_Neisseria_g: Qualifier_for_MIC_Ng>
=

> <ChEMBL_Data_Neisseria_g: ASSAY_CHEMBLID>
CHEMBL753613

> <ChEMBL_Data_Neisseria_g: DESCRIPTION_of_Assay_Ng>
In vitro antimicrobial activity against Neisseria gonorrhoeae L997

> <ChEMBL_Data_Neisseria_g: PUBMED_ID>
9083486

> <ChEMBL_Data_Neisseria_g: YEAR>
1997

> <ChEMBL_Data_Neisseria_g: JOURNAL>
J. Med. Chem.

> <ChEMBL_Data_Neisseria_g: VOLUME>
40

> <ChEMBL_Data_Neisseria_g: FIRST_PAGE>
967

> <ChEMBL_Data_Neisseria_g: MIC_vs_Neisseria_microg_per_mL>
0.25

> <ALogP>
2.826

> <Active>
1

> <Molecular_Weight>
613.525

$$$$

Generated by Molecular Materials Informatics

 23 25  0  0  0  0  0  0  0  0999 V2000
   -2.9226   -2.9999    0.0000 C   0  0  0  0  0  0  0  0  0  0  0  0
   -1.6236   -2.2499    0.0000 C   0  0  0  0  0  0  0  0  0  0  0  0
   -1.6236   -0.7500    0.0000 C   0  0  0  0  0  0  0  0  0  0  0  0
   -0.3247    0.0000    0.0000 C   0  0  0  0  0  0  0  0  0  0  0  0
    0.9743   -0.7500    0.0000 C   0  0  0  0  0  0  0  0  0  0  0  0
    2.2734    0.0000    0.0000 B   0  0  0  0  0  0  0  0  0  0  0  0
    2.2734    1.5000    0.0000 O   0  0  0  0  0  0  0  0  0  0  0  0
    3.5724   -0.7500    0.0000 N   0  0  0  0  0  0  0  0  0  0  0  0
    3.5724   -2.2499    0.0000 N   0  0  0  0  0  0  0  0  0  0  0  0
    2.2734   -2.9999    0.0000 C   0  0  0  0  0  0  0  0  0  0  0  0
    0.9743   -2.2499    0.0000 C   0  0  0  0  0  0  0  0  0  0  0  0
   -0.3247   -2.9999    0.0000 C   0  0  0  0  0  0  0  0  0  0  0  0
    4.8713    0.0000    0.0000 S   0  0  0  0  0  0  0  0  0  0  0  0
    5.6213   -1.2991    0.0000 O   0  0  0  0  0  0  0  0  0  0  0  0
    4.1213    1.2991    0.0000 O   0  0  0  0  0  0  0  0  0  0  0  0
    6.1704    0.7500    0.0000 C   0  0  0  0  0  0  0  0  0  0  0  0
    6.1704    2.2499    0.0000 C   0  0  0  0  0  0  0  0  0  0  0  0
    7.4694    2.9999    0.0000 C   0  0  0  0  0  0  0  0  0  0  0  0
    8.7683    2.2499    0.0000 C   0  0  0  0  0  0  0  0  0  0  0  0
   10.0673    2.9999    0.0000 N   0  0  0  0  0  0  0  0  0  0  0  0
    8.7683    0.7500    0.0000 C   0  0  0  0  0  0  0  0  0  0  0  0
    7.4694    0.0000    0.0000 C   0  0  0  0  0  0  0  0  0  0  0  0
    7.4694   -1.5000    0.0000 Cl  0  0  0  0  0  0  0  0  0  0  0  0
  1  2  1  0  0  0  0
  2  3  2  0  0  0  0
  3  4  1  0  0  0  0
  4  5  2  0  0  0  0
  5  6  1  0  0  0  0
  6  7  1  0  0  0  0
  6  8  1  0  0  0  0
  8  9  1  0  0  0  0
  9 10  2  0  0  0  0
 10 11  1  0  0  0  0
  5 11  1  0  0  0  0
 11 12  2  0  0  0  0
  2 12  1  0  0  0  0
  8 13  1  0  0  0  0
 13 14  2  0  0  0  0
 13 15  2  0  0  0  0
 13 16  1  0  0  0  0
 16 17  2  0  0  0  0
 17 18  1  0  0  0  0
 18 19  2  0  0  0  0
 19 20  1  0  0  0  0
 19 21  1  0  0  0  0
 21 22  2  0  0  0  0
 16 22  1  0  0  0  0
 22 23  1  0  0  0  0
M  END
> <Molecule Name>
CHEMBL176464

> <IUPAC>
2-(4-amino-2-chlorobenzenesulfonyl)-6-methyl-1,2-dihydro-2,3,1-benzodiazaborinin-1-ol

> <Collections>
TrainingSet_Kleb_p_ALPerryman_JSF

> <ChEMBL_Data_Neisseria_g: Qualifier_for_MIC_Ng>
=

> <ChEMBL_Data_Neisseria_g: ASSAY_CHEMBLID>
CHEMBL754339

> <ChEMBL_Data_Neisseria_g: DESCRIPTION_of_Assay_Ng>
Minimum inhibitory concentration of compound against Neisseria gonorrhoeae AS 7720

> <ChEMBL_Data_Neisseria_g: PUBMED_ID>
6379179

> <ChEMBL_Data_Neisseria_g: YEAR>
1984

> <ChEMBL_Data_Neisseria_g: JOURNAL>
J. Med. Chem.

> <ChEMBL_Data_Neisseria_g: VOLUME>
27

> <ChEMBL_Data_Neisseria_g: FIRST_PAGE>
947

> <ChEMBL_Data_Neisseria_g: MIC_vs_Neisseria_microg_per_mL>
1

> <ALogP>
3.308

> <Active>
1

> <Molecular_Weight>
349.6

$$$$

Generated by Molecular Materials Informatics

 39 44  0  0  0  0  0  0  0  0999 V2000
   -2.4009   -5.2070    0.0000 C   0  0  0  0  0  0  0  0  0  0  0  0
   -0.9338   -5.5192    0.0000 O   0  0  0  0  0  0  0  0  0  0  0  0
    0.0703   -4.4048    0.0000 C   0  0  0  0  0  0  0  0  0  0  0  0
   -0.3928   -2.9780    0.0000 O   0  0  0  0  0  0  0  0  0  0  0  0
    1.5374   -4.7172    0.0000 C   0  0  0  0  0  0  0  0  0  0  0  0
    2.5414   -3.6026    0.0000 C   0  0  0  0  0  0  0  0  0  0  0  0
    4.0087   -3.9150    0.0000 C   0  0  0  0  0  0  0  0  0  0  0  0
    5.0127   -2.8006    0.0000 C   0  0  0  0  0  0  0  0  0  0  0  0
    6.4798   -3.1128    0.0000 C   0  0  0  0  0  0  0  0  0  0  0  0
    7.4838   -1.9984    0.0000 C   0  0  0  0  0  0  0  0  0  0  0  0
    7.0207   -0.5717    0.0000 O   0  0  0  0  0  0  0  0  0  0  0  0
    8.9509   -2.3108    0.0000 C   0  0  0  0  0  0  0  0  0  0  0  0
    9.4140   -3.7373    0.0000 C   0  0  0  0  0  0  0  0  0  0  0  0
   10.0238   -5.1079    0.0000 C   0  0  0  0  0  0  0  0  0  0  0  0
   11.5156   -4.9515    0.0000 C   0  0  0  0  0  0  0  0  0  0  0  0
   11.8278   -3.4844    0.0000 C   0  0  0  0  0  0  0  0  0  0  0  0
   10.5291   -2.7340    0.0000 O   0  0  0  0  0  0  0  0  0  0  0  0
   13.2546   -3.0213    0.0000 C   0  0  0  0  0  0  0  0  0  0  0  0
   13.5669   -1.5542    0.0000 O   0  0  0  0  0  0  0  0  0  0  0  0
   14.3691   -4.0253    0.0000 C   0  0  0  0  0  0  0  0  0  0  0  0
   15.7959   -3.5622    0.0000 C   0  0  0  0  0  0  0  0  0  0  0  0
   16.1081   -2.0951    0.0000 O   0  0  0  0  0  0  0  0  0  0  0  0
   16.9103   -4.5662    0.0000 C   0  0  0  0  0  0  0  0  0  0  0  0
   18.3370   -4.1032    0.0000 O   0  0  0  0  0  0  0  0  0  0  0  0
   18.6494   -2.6360    0.0000 C   0  0  0  0  0  0  0  0  0  0  0  0
   16.5979   -6.0334    0.0000 C   0  0  0  0  0  0  0  0  0  0  0  0
   15.1711   -6.4965    0.0000 C   0  0  0  0  0  0  0  0  0  0  0  0
   14.8590   -7.9637    0.0000 O   0  0  0  0  0  0  0  0  0  0  0  0
   14.0568   -5.4924    0.0000 C   0  0  0  0  0  0  0  0  0  0  0  0
   12.6300   -5.9555    0.0000 C   0  0  0  0  0  0  0  0  0  0  0  0
   12.3178   -7.4228    0.0000 O   0  0  0  0  0  0  0  0  0  0  0  0
    8.4100   -4.8519    0.0000 O   0  0  0  0  0  0  0  0  0  0  0  0
    6.9429   -4.5395    0.0000 C   0  0  0  0  0  0  0  0  0  0  0  0
    5.9389   -5.6539    0.0000 C   0  0  0  0  0  0  0  0  0  0  0  0
    6.4020   -7.0806    0.0000 O   0  0  0  0  0  0  0  0  0  0  0  0
    4.4718   -5.3417    0.0000 C   0  0  0  0  0  0  0  0  0  0  0  0
    3.4677   -6.4561    0.0000 C   0  0  0  0  0  0  0  0  0  0  0  0
    3.9308   -7.8828    0.0000 O   0  0  0  0  0  0  0  0  0  0  0  0
    2.0005   -6.1439    0.0000 O   0  0  0  0  0  0  0  0  0  0  0  0
  1  2  1  0  0  0  0
  2  3  1  0  0  0  0
  3  4  2  0  0  0  0
  3  5  1  0  0  0  0
  5  6  2  0  0  0  0
  6  7  1  0  0  0  0
  7  8  2  0  0  0  0
  8  9  1  0  0  0  0
  9 10  1  0  0  0  0
 10 11  1  0  0  0  0
 10 12  1  0  0  0  0
 12 13  1  0  0  0  0
 13 14  1  0  0  0  0
 14 15  1  0  0  0  0
 15 16  2  0  0  0  0
 16 17  1  0  0  0  0
 13 17  1  0  0  0  0
 16 18  1  0  0  0  0
 18 19  2  0  0  0  0
 18 20  1  0  0  0  0
 20 21  2  0  0  0  0
 21 22  1  0  0  0  0
 21 23  1  0  0  0  0
 23 24  1  0  0  0  0
 24 25  1  0  0  0  0
 23 26  2  0  0  0  0
 26 27  1  0  0  0  0
 27 28  1  0  0  0  0
 27 29  2  0  0  0  0
 20 29  1  0  0  0  0
 29 30  1  0  0  0  0
 15 30  1  0  0  0  0
 30 31  2  0  0  0  0
 13 32  1  0  0  0  0
 32 33  1  0  0  0  0
  9 33  2  0  0  0  0
 33 34  1  0  0  0  0
 34 35  1  0  0  0  0
 34 36  2  0  0  0  0
  7 36  1  0  0  0  0
 36 37  1  0  0  0  0
 37 38  2  0  0  0  0
 37 39  1  0  0  0  0
  5 39  1  0  0  0  0
M  END
> <Molecule Name>
CHEMBL175803

> <IUPAC>
methyl 4',5,8,10'-tetrahydroxy-7-methoxy-4,9,9'-trioxo-4,4',9,9'-tetrahydro-3H,3'H-spiro[naphtho[2,3-b]furan-2,2'-pyrano[3,2-g]isochromene]-7'-carboxylate

> <Collections>
Set2_NotListedAsBetaLactamResistant (mostly)

> <ChEMBL_Data_Neisseria_g: NUM_RO5_VIOLATIONS>
2

> <ChEMBL_Data_Neisseria_g: Qualifier_for_MIC_Ng>
=

> <ChEMBL_Data_Neisseria_g: ASSAY_CHEMBLID>
CHEMBL753613

> <ChEMBL_Data_Neisseria_g: DESCRIPTION_of_Assay_Ng>
In vitro antimicrobial activity against Neisseria gonorrhoeae L997

> <ChEMBL_Data_Neisseria_g: PUBMED_ID>
9083486

> <ChEMBL_Data_Neisseria_g: YEAR>
1997

> <ChEMBL_Data_Neisseria_g: JOURNAL>
J. Med. Chem.

> <ChEMBL_Data_Neisseria_g: VOLUME>
40

> <ChEMBL_Data_Neisseria_g: FIRST_PAGE>
967

> <ChEMBL_Data_Neisseria_g: MIC_vs_Neisseria_microg_per_mL>
0.06

> <ALogP>
1.417

> <Active>
1

> <Molecular_Weight>
538.413

$$$$

Generated by Molecular Materials Informatics

 24 26  0  0  0  0  0  0  0  0999 V2000
    2.3057   -2.8125    0.0000 O   0  0  0  0  0  0  0  0  0  0  0  0
    2.3057   -1.3125    0.0000 B   0  0  0  0  0  0  0  0  0  0  0  0
    1.0068   -0.5625    0.0000 N   0  0  0  0  0  0  0  0  0  0  0  0
    1.0068    0.9374    0.0000 N   0  0  0  0  0  0  0  0  0  0  0  0
    2.3057    1.6874    0.0000 C   0  0  0  0  0  0  0  0  0  0  0  0
    3.6047    0.9374    0.0000 C   0  0  0  0  0  0  0  0  0  0  0  0
    4.9038    1.6874    0.0000 C   0  0  0  0  0  0  0  0  0  0  0  0
    6.2028    0.9374    0.0000 C   0  0  0  0  0  0  0  0  0  0  0  0
    7.5017    1.6874    0.0000 Br  0  0  0  0  0  0  0  0  0  0  0  0
    6.2028   -0.5625    0.0000 C   0  0  0  0  0  0  0  0  0  0  0  0
    4.9038   -1.3125    0.0000 C   0  0  0  0  0  0  0  0  0  0  0  0
    3.6047   -0.5625    0.0000 C   0  0  0  0  0  0  0  0  0  0  0  0
   -0.2922   -1.3125    0.0000 S   0  0  0  0  0  0  0  0  0  0  0  0
   -1.0422   -0.0135    0.0000 O   0  0  0  0  0  0  0  0  0  0  0  0
    0.4577   -2.6116    0.0000 O   0  0  0  0  0  0  0  0  0  0  0  0
   -1.5913   -2.0625    0.0000 C   0  0  0  0  0  0  0  0  0  0  0  0
   -1.5913   -3.5625    0.0000 C   0  0  0  0  0  0  0  0  0  0  0  0
   -2.8902   -4.3124    0.0000 C   0  0  0  0  0  0  0  0  0  0  0  0
   -4.1892   -3.5625    0.0000 C   0  0  0  0  0  0  0  0  0  0  0  0
   -4.1892   -2.0625    0.0000 C   0  0  0  0  0  0  0  0  0  0  0  0
   -2.8902   -1.3125    0.0000 C   0  0  0  0  0  0  0  0  0  0  0  0
   -5.4883   -4.3124    0.0000 N   0  3  0  0  0  0  0  0  0  0  0  0
   -5.4883   -5.8124    0.0000 O   0  0  0  0  0  0  0  0  0  0  0  0
   -6.7873   -3.5625    0.0000 O   0  5  0  0  0  0  0  0  0  0  0  0
  1  2  1  0  0  0  0
  2  3  1  0  0  0  0
  3  4  1  0  0  0  0
  4  5  2  0  0  0  0
  5  6  1  0  0  0  0
  6  7  2  0  0  0  0
  7  8  1  0  0  0  0
  8  9  1  0  0  0  0
  8 10  2  0  0  0  0
 10 11  1  0  0  0  0
 11 12  2  0  0  0  0
  2 12  1  0  0  0  0
  6 12  1  0  0  0  0
  3 13  1  0  0  0  0
 13 14  2  0  0  0  0
 13 15  2  0  0  0  0
 13 16  1  0  0  0  0
 16 17  2  0  0  0  0
 17 18  1  0  0  0  0
 18 19  2  0  0  0  0
 19 20  1  0  0  0  0
 20 21  2  0  0  0  0
 16 21  1  0  0  0  0
 19 22  1  0  0  0  0
 22 23  2  0  0  0  0
 22 24  1  0  0  0  0
M  CHG  2  22   1  24  -1
M  END
> <Molecule Name>
CHEMBL175046

> <IUPAC>
6-bromo-2-(4-nitrobenzenesulfonyl)-1,2-dihydro-2,3,1-benzodiazaborinin-1-ol

> <Collections>
TrainingSet_Kleb_p_ALPerryman_JSF

> <ChEMBL_Data_Neisseria_g: Qualifier_for_MIC_Ng>
=

> <ChEMBL_Data_Neisseria_g: ASSAY_CHEMBLID>
CHEMBL858169

> <ChEMBL_Data_Neisseria_g: DESCRIPTION_of_Assay_Ng>
Minimum inhibitory concentration of compound against Neisseria gonorrhoeae W2

> <ChEMBL_Data_Neisseria_g: PUBMED_ID>
6379179

> <ChEMBL_Data_Neisseria_g: YEAR>
1984

> <ChEMBL_Data_Neisseria_g: JOURNAL>
J. Med. Chem.

> <ChEMBL_Data_Neisseria_g: VOLUME>
27

> <ChEMBL_Data_Neisseria_g: FIRST_PAGE>
947

> <ChEMBL_Data_Neisseria_g: MIC_vs_Neisseria_microg_per_mL>
8

> <ALogP>
3.546

> <Active>
1

> <Molecular_Weight>
410.008

$$$$

Generated by Molecular Materials Informatics

 22 24  0  0  0  0  0  0  0  0999 V2000
   -5.7805   -4.6499    0.0000 N   0  0  0  0  0  0  0  0  0  0  0  0
   -4.4815   -3.8999    0.0000 C   0  0  0  0  0  0  0  0  0  0  0  0
   -4.4815   -2.4000    0.0000 C   0  0  0  0  0  0  0  0  0  0  0  0
   -3.1824   -1.6500    0.0000 C   0  0  0  0  0  0  0  0  0  0  0  0
   -1.8836   -2.4000    0.0000 C   0  0  0  0  0  0  0  0  0  0  0  0
   -1.8836   -3.8999    0.0000 C   0  0  0  0  0  0  0  0  0  0  0  0
   -3.1824   -4.6499    0.0000 C   0  0  0  0  0  0  0  0  0  0  0  0
   -0.5845   -1.6500    0.0000 S   0  0  0  0  0  0  0  0  0  0  0  0
    0.1655   -2.9491    0.0000 O   0  0  0  0  0  0  0  0  0  0  0  0
   -1.3345   -0.3509    0.0000 O   0  0  0  0  0  0  0  0  0  0  0  0
    0.7145   -0.9000    0.0000 N   0  0  0  0  0  0  0  0  0  0  0  0
    0.7145    0.5999    0.0000 N   0  0  0  0  0  0  0  0  0  0  0  0
    2.0134    1.3499    0.0000 C   0  0  0  0  0  0  0  0  0  0  0  0
    3.3125    0.5999    0.0000 C   0  0  0  0  0  0  0  0  0  0  0  0
    4.6115    1.3499    0.0000 C   0  0  0  0  0  0  0  0  0  0  0  0
    5.9106    0.5999    0.0000 C   0  0  0  0  0  0  0  0  0  0  0  0
    7.2094    1.3499    0.0000 Br  0  0  0  0  0  0  0  0  0  0  0  0
    5.9106   -0.9000    0.0000 C   0  0  0  0  0  0  0  0  0  0  0  0
    4.6115   -1.6500    0.0000 C   0  0  0  0  0  0  0  0  0  0  0  0
    3.3125   -0.9000    0.0000 C   0  0  0  0  0  0  0  0  0  0  0  0
    2.0134   -1.6500    0.0000 B   0  0  0  0  0  0  0  0  0  0  0  0
    2.0134   -3.1500    0.0000 O   0  0  0  0  0  0  0  0  0  0  0  0
  1  2  1  0  0  0  0
  2  3  2  0  0  0  0
  3  4  1  0  0  0  0
  4  5  2  0  0  0  0
  5  6  1  0  0  0  0
  6  7  2  0  0  0  0
  2  7  1  0  0  0  0
  5  8  1  0  0  0  0
  8  9  2  0  0  0  0
  8 10  2  0  0  0  0
  8 11  1  0  0  0  0
 11 12  1  0  0  0  0
 12 13  2  0  0  0  0
 13 14  1  0  0  0  0
 14 15  2  0  0  0  0
 15 16  1  0  0  0  0
 16 17  1  0  0  0  0
 16 18  2  0  0  0  0
 18 19  1  0  0  0  0
 19 20  2  0  0  0  0
 14 20  1  0  0  0  0
 20 21  1  0  0  0  0
 11 21  1  0  0  0  0
 21 22  1  0  0  0  0
M  END
> <Molecule Name>
CHEMBL175013

> <IUPAC>
2-(4-aminobenzenesulfonyl)-6-bromo-1,2-dihydro-2,3,1-benzodiazaborinin-1-ol

> <Collections>
TrainingSet_Kleb_p_ALPerryman_JSF

> <ChEMBL_Data_Neisseria_g: Qualifier_for_MIC_Ng>
=

> <ChEMBL_Data_Neisseria_g: ASSAY_CHEMBLID>
CHEMBL858169

> <ChEMBL_Data_Neisseria_g: DESCRIPTION_of_Assay_Ng>
Minimum inhibitory concentration of compound against Neisseria gonorrhoeae W2

> <ChEMBL_Data_Neisseria_g: PUBMED_ID>
6379179

> <ChEMBL_Data_Neisseria_g: YEAR>
1984

> <ChEMBL_Data_Neisseria_g: JOURNAL>
J. Med. Chem.

> <ChEMBL_Data_Neisseria_g: VOLUME>
27

> <ChEMBL_Data_Neisseria_g: FIRST_PAGE>
947

> <ChEMBL_Data_Neisseria_g: MIC_vs_Neisseria_microg_per_mL>
2

> <ALogP>
2.905

> <Active>
1

> <Molecular_Weight>
380.025

$$$$

Generated by Molecular Materials Informatics

 22 24  0  0  0  0  0  0  0  0999 V2000
   -5.4883   -4.9874    0.0000 N   0  0  0  0  0  0  0  0  0  0  0  0
   -4.1892   -4.2374    0.0000 C   0  0  0  0  0  0  0  0  0  0  0  0
   -4.1892   -2.7375    0.0000 C   0  0  0  0  0  0  0  0  0  0  0  0
   -2.8902   -1.9875    0.0000 C   0  0  0  0  0  0  0  0  0  0  0  0
   -1.5913   -2.7375    0.0000 C   0  0  0  0  0  0  0  0  0  0  0  0
   -1.5913   -4.2374    0.0000 C   0  0  0  0  0  0  0  0  0  0  0  0
   -2.8902   -4.9874    0.0000 C   0  0  0  0  0  0  0  0  0  0  0  0
   -0.2923   -1.9875    0.0000 S   0  0  0  0  0  0  0  0  0  0  0  0
    0.4577   -3.2865    0.0000 O   0  0  0  0  0  0  0  0  0  0  0  0
   -1.0423   -0.6884    0.0000 O   0  0  0  0  0  0  0  0  0  0  0  0
    1.0068   -1.2375    0.0000 N   0  0  0  0  0  0  0  0  0  0  0  0
    1.0068    0.2625    0.0000 N   0  0  0  0  0  0  0  0  0  0  0  0
    2.3056    1.0124    0.0000 C   0  0  0  0  0  0  0  0  0  0  0  0
    3.6047    0.2625    0.0000 C   0  0  0  0  0  0  0  0  0  0  0  0
    4.9037    1.0124    0.0000 C   0  0  0  0  0  0  0  0  0  0  0  0
    4.9037    2.5124    0.0000 F   0  0  0  0  0  0  0  0  0  0  0  0
    6.2028    0.2625    0.0000 C   0  0  0  0  0  0  0  0  0  0  0  0
    6.2028   -1.2375    0.0000 C   0  0  0  0  0  0  0  0  0  0  0  0
    4.9037   -1.9875    0.0000 C   0  0  0  0  0  0  0  0  0  0  0  0
    3.6047   -1.2375    0.0000 C   0  0  0  0  0  0  0  0  0  0  0  0
    2.3056   -1.9875    0.0000 B   0  0  0  0  0  0  0  0  0  0  0  0
    2.3056   -3.4874    0.0000 O   0  0  0  0  0  0  0  0  0  0  0  0
  1  2  1  0  0  0  0
  2  3  2  0  0  0  0
  3  4  1  0  0  0  0
  4  5  2  0  0  0  0
  5  6  1  0  0  0  0
  6  7  2  0  0  0  0
  2  7  1  0  0  0  0
  5  8  1  0  0  0  0
  8  9  2  0  0  0  0
  8 10  2  0  0  0  0
  8 11  1  0  0  0  0
 11 12  1  0  0  0  0
 12 13  2  0  0  0  0
 13 14  1  0  0  0  0
 14 15  2  0  0  0  0
 15 16  1  0  0  0  0
 15 17  1  0  0  0  0
 17 18  2  0  0  0  0
 18 19  1  0  0  0  0
 19 20  2  0  0  0  0
 14 20  1  0  0  0  0
 20 21  1  0  0  0  0
 11 21  1  0  0  0  0
 21 22  1  0  0  0  0
M  END
> <Molecule Name>
CHEMBL174997

> <IUPAC>
2-(4-aminobenzenesulfonyl)-5-fluoro-1,2-dihydro-2,3,1-benzodiazaborinin-1-ol

> <Collections>
TrainingSet_Kleb_p_ALPerryman_JSF

> <ChEMBL_Data_Neisseria_g: Qualifier_for_MIC_Ng>
=

> <ChEMBL_Data_Neisseria_g: ASSAY_CHEMBLID>
CHEMBL753615

> <ChEMBL_Data_Neisseria_g: DESCRIPTION_of_Assay_Ng>
Minimum inhibitory concentration of compound against Neisseria gonorrhoeae AS 7720

> <ChEMBL_Data_Neisseria_g: PUBMED_ID>
6379179

> <ChEMBL_Data_Neisseria_g: YEAR>
1984

> <ChEMBL_Data_Neisseria_g: JOURNAL>
J. Med. Chem.

> <ChEMBL_Data_Neisseria_g: VOLUME>
27

> <ChEMBL_Data_Neisseria_g: FIRST_PAGE>
947

> <ChEMBL_Data_Neisseria_g: MIC_vs_Neisseria_microg_per_mL>
8

> <ALogP>
2.363

> <Active>
1

> <Molecular_Weight>
319.119

$$$$

Generated by Molecular Materials Informatics

 38 43  0  0  0  0  0  0  0  0999 V2000
   -2.3305   -5.2070    0.0000 C   0  0  0  0  0  0  0  0  0  0  0  0
   -0.8634   -5.5192    0.0000 O   0  0  0  0  0  0  0  0  0  0  0  0
    0.1406   -4.4048    0.0000 C   0  0  0  0  0  0  0  0  0  0  0  0
   -0.3225   -2.9781    0.0000 O   0  0  0  0  0  0  0  0  0  0  0  0
    1.6077   -4.7172    0.0000 C   0  0  0  0  0  0  0  0  0  0  0  0
    2.6117   -3.6026    0.0000 C   0  0  0  0  0  0  0  0  0  0  0  0
    4.0790   -3.9150    0.0000 C   0  0  0  0  0  0  0  0  0  0  0  0
    5.0830   -2.8006    0.0000 C   0  0  0  0  0  0  0  0  0  0  0  0
    6.5501   -3.1128    0.0000 C   0  0  0  0  0  0  0  0  0  0  0  0
    7.5541   -1.9984    0.0000 C   0  0  0  0  0  0  0  0  0  0  0  0
    7.0910   -0.5717    0.0000 O   0  0  0  0  0  0  0  0  0  0  0  0
    9.0212   -2.3108    0.0000 C   0  0  0  0  0  0  0  0  0  0  0  0
    9.4843   -3.7373    0.0000 C   0  0  0  0  0  0  0  0  0  0  0  0
   10.0941   -5.1079    0.0000 C   0  0  0  0  0  0  0  0  0  0  0  0
   11.5859   -4.9515    0.0000 C   0  0  0  0  0  0  0  0  0  0  0  0
   11.8981   -3.4844    0.0000 C   0  0  0  0  0  0  0  0  0  0  0  0
   10.5994   -2.7341    0.0000 O   0  0  0  0  0  0  0  0  0  0  0  0
   13.3248   -3.0213    0.0000 C   0  0  0  0  0  0  0  0  0  0  0  0
   13.6372   -1.5542    0.0000 O   0  0  0  0  0  0  0  0  0  0  0  0
   14.4394   -4.0253    0.0000 C   0  0  0  0  0  0  0  0  0  0  0  0
   15.8661   -3.5622    0.0000 C   0  0  0  0  0  0  0  0  0  0  0  0
   16.1783   -2.0951    0.0000 O   0  0  0  0  0  0  0  0  0  0  0  0
   16.9805   -4.5662    0.0000 C   0  0  0  0  0  0  0  0  0  0  0  0
   18.4072   -4.1032    0.0000 N   0  0  0  0  0  0  0  0  0  0  0  0
   16.6681   -6.0333    0.0000 C   0  0  0  0  0  0  0  0  0  0  0  0
   15.2414   -6.4964    0.0000 C   0  0  0  0  0  0  0  0  0  0  0  0
   14.9292   -7.9637    0.0000 O   0  0  0  0  0  0  0  0  0  0  0  0
   14.1270   -5.4924    0.0000 C   0  0  0  0  0  0  0  0  0  0  0  0
   12.7003   -5.9555    0.0000 C   0  0  0  0  0  0  0  0  0  0  0  0
   12.3881   -7.4228    0.0000 O   0  0  0  0  0  0  0  0  0  0  0  0
    8.4803   -4.8519    0.0000 O   0  0  0  0  0  0  0  0  0  0  0  0
    7.0132   -4.5395    0.0000 C   0  0  0  0  0  0  0  0  0  0  0  0
    6.0092   -5.6539    0.0000 C   0  0  0  0  0  0  0  0  0  0  0  0
    6.4722   -7.0806    0.0000 O   0  0  0  0  0  0  0  0  0  0  0  0
    4.5421   -5.3417    0.0000 C   0  0  0  0  0  0  0  0  0  0  0  0
    3.5381   -6.4561    0.0000 C   0  0  0  0  0  0  0  0  0  0  0  0
    4.0011   -7.8828    0.0000 O   0  0  0  0  0  0  0  0  0  0  0  0
    2.0708   -6.1439    0.0000 O   0  0  0  0  0  0  0  0  0  0  0  0
  1  2  1  0  0  0  0
  2  3  1  0  0  0  0
  3  4  2  0  0  0  0
  3  5  1  0  0  0  0
  5  6  2  0  0  0  0
  6  7  1  0  0  0  0
  7  8  2  0  0  0  0
  8  9  1  0  0  0  0
  9 10  1  0  0  0  0
 10 11  1  0  0  0  0
 10 12  1  0  0  0  0
 12 13  1  0  0  0  0
 13 14  1  0  0  0  0
 14 15  1  0  0  0  0
 15 16  2  0  0  0  0
 16 17  1  0  0  0  0
 13 17  1  0  0  0  0
 16 18  1  0  0  0  0
 18 19  2  0  0  0  0
 18 20  1  0  0  0  0
 20 21  2  0  0  0  0
 21 22  1  0  0  0  0
 21 23  1  0  0  0  0
 23 24  1  0  0  0  0
 23 25  2  0  0  0  0
 25 26  1  0  0  0  0
 26 27  1  0  0  0  0
 26 28  2  0  0  0  0
 20 28  1  0  0  0  0
 28 29  1  0  0  0  0
 15 29  1  0  0  0  0
 29 30  2  0  0  0  0
 13 31  1  0  0  0  0
 31 32  1  0  0  0  0
  9 32  2  0  0  0  0
 32 33  1  0  0  0  0
 33 34  1  0  0  0  0
 33 35  2  0  0  0  0
  7 35  1  0  0  0  0
 35 36  1  0  0  0  0
 36 37  2  0  0  0  0
 36 38  1  0  0  0  0
  5 38  1  0  0  0  0
M  END
> <Molecule Name>
CHEMBL174808

> <IUPAC>
methyl 7-amino-4',5,8,10'-tetrahydroxy-4,9,9'-trioxo-4,4',9,9'-tetrahydro-3H,3'H-spiro[naphtho[2,3-b]furan-2,2'-pyrano[3,2-g]isochromene]-7'-carboxylate

> <Collections>
Set2_NotListedAsBetaLactamResistant (mostly)

> <ChEMBL_Data_Neisseria_g: NUM_RO5_VIOLATIONS>
2

> <ChEMBL_Data_Neisseria_g: Qualifier_for_MIC_Ng>
=

> <ChEMBL_Data_Neisseria_g: ASSAY_CHEMBLID>
CHEMBL753613

> <ChEMBL_Data_Neisseria_g: DESCRIPTION_of_Assay_Ng>
In vitro antimicrobial activity against Neisseria gonorrhoeae L997

> <ChEMBL_Data_Neisseria_g: PUBMED_ID>
9083486

> <ChEMBL_Data_Neisseria_g: YEAR>
1997

> <ChEMBL_Data_Neisseria_g: JOURNAL>
J. Med. Chem.

> <ChEMBL_Data_Neisseria_g: VOLUME>
40

> <ChEMBL_Data_Neisseria_g: FIRST_PAGE>
967

> <ChEMBL_Data_Neisseria_g: MIC_vs_Neisseria_microg_per_mL>
0.03

> <ALogP>
0.687

> <Active>
1

> <Molecular_Weight>
523.402

$$$$

Generated by Molecular Materials Informatics

 16 17  0  0  0  0  0  0  0  0999 V2000
    7.4765    5.3479    0.0000 C   0  0  0  0  0  0  0  0  0  0  0  0
    6.1774    4.5979    0.0000 C   0  0  0  0  0  0  0  0  0  0  0  0
    6.1774    3.0979    0.0000 C   0  0  0  0  0  0  0  0  0  0  0  0
    4.8785    2.3479    0.0000 S   0  0  0  0  0  0  0  0  0  0  0  0
    4.1285    3.6470    0.0000 O   0  0  0  0  0  0  0  0  0  0  0  0
    5.6285    1.0490    0.0000 O   0  0  0  0  0  0  0  0  0  0  0  0
    3.5794    1.5979    0.0000 N   0  0  0  0  0  0  0  0  0  0  0  0
    3.5794    0.0979    0.0000 N   0  0  0  0  0  0  0  0  0  0  0  0
    2.2803   -0.6521    0.0000 C   0  0  0  0  0  0  0  0  0  0  0  0
    0.9812    0.0979    0.0000 C   0  0  0  0  0  0  0  0  0  0  0  0
   -0.4453   -0.3656    0.0000 S   0  0  0  0  0  0  0  0  0  0  0  0
   -1.3270    0.8479    0.0000 C   0  0  0  0  0  0  0  0  0  0  0  0
   -0.4453    2.0615    0.0000 C   0  0  0  0  0  0  0  0  0  0  0  0
    0.9812    1.5979    0.0000 C   0  0  0  0  0  0  0  0  0  0  0  0
    2.2803    2.3479    0.0000 B   0  0  0  0  0  0  0  0  0  0  0  0
    2.2803    3.8479    0.0000 O   0  0  0  0  0  0  0  0  0  0  0  0
  1  2  1  0  0  0  0
  2  3  1  0  0  0  0
  3  4  1  0  0  0  0
  4  5  2  0  0  0  0
  4  6  2  0  0  0  0
  4  7  1  0  0  0  0
  7  8  1  0  0  0  0
  8  9  2  0  0  0  0
  9 10  1  0  0  0  0
 10 11  1  0  0  0  0
 11 12  1  0  0  0  0
 12 13  2  0  0  0  0
 13 14  1  0  0  0  0
 10 14  2  0  0  0  0
 14 15  1  0  0  0  0
  7 15  1  0  0  0  0
 15 16  1  0  0  0  0
M  END
> <Molecule Name>
CHEMBL174800

> <IUPAC>
2-(propane-1-sulfonyl)-1H,2H-thieno[3,2-d][1,2,3]diazaborinin-1-ol

> <Collections>
TrainingSet_Kleb_p_ALPerryman_JSF

> <ChEMBL_Data_Neisseria_g: Qualifier_for_MIC_Ng>
=

> <ChEMBL_Data_Neisseria_g: ASSAY_CHEMBLID>
CHEMBL753615

> <ChEMBL_Data_Neisseria_g: DESCRIPTION_of_Assay_Ng>
Minimum inhibitory concentration of compound against Neisseria gonorrhoeae AS 7720

> <ChEMBL_Data_Neisseria_g: PUBMED_ID>
6379179

> <ChEMBL_Data_Neisseria_g: YEAR>
1984

> <ChEMBL_Data_Neisseria_g: JOURNAL>
J. Med. Chem.

> <ChEMBL_Data_Neisseria_g: VOLUME>
27

> <ChEMBL_Data_Neisseria_g: FIRST_PAGE>
947

> <ChEMBL_Data_Neisseria_g: MIC_vs_Neisseria_microg_per_mL>
8

> <ALogP>
2.153

> <Active>
1

> <Molecular_Weight>
258.126

$$$$

Generated by Molecular Materials Informatics

 21 23  0  0  0  0  0  0  0  0999 V2000
    2.9666    2.7375    0.0000 O   0  0  0  0  0  0  0  0  0  0  0  0
    2.9666    1.2375    0.0000 B   0  0  0  0  0  0  0  0  0  0  0  0
    4.2657    0.4875    0.0000 N   0  0  0  0  0  0  0  0  0  0  0  0
    4.2657   -1.0125    0.0000 N   0  0  0  0  0  0  0  0  0  0  0  0
    2.9666   -1.7625    0.0000 C   0  0  0  0  0  0  0  0  0  0  0  0
    1.6677   -1.0125    0.0000 C   0  0  0  0  0  0  0  0  0  0  0  0
    0.2410   -1.4760    0.0000 S   0  0  0  0  0  0  0  0  0  0  0  0
   -0.6407   -0.2625    0.0000 C   0  0  0  0  0  0  0  0  0  0  0  0
   -2.1407   -0.2625    0.0000 Br  0  0  0  0  0  0  0  0  0  0  0  0
    0.2410    0.9510    0.0000 C   0  0  0  0  0  0  0  0  0  0  0  0
    1.6677    0.4875    0.0000 C   0  0  0  0  0  0  0  0  0  0  0  0
    5.5648    1.2375    0.0000 S   0  0  0  0  0  0  0  0  0  0  0  0
    6.3148   -0.0616    0.0000 O   0  0  0  0  0  0  0  0  0  0  0  0
    4.8148    2.5366    0.0000 O   0  0  0  0  0  0  0  0  0  0  0  0
    6.8637    1.9875    0.0000 C   0  0  0  0  0  0  0  0  0  0  0  0
    6.8637    3.4875    0.0000 C   0  0  0  0  0  0  0  0  0  0  0  0
    8.1628    4.2375    0.0000 C   0  0  0  0  0  0  0  0  0  0  0  0
    9.4619    3.4875    0.0000 C   0  0  0  0  0  0  0  0  0  0  0  0
    9.4619    1.9875    0.0000 C   0  0  0  0  0  0  0  0  0  0  0  0
    8.1628    1.2375    0.0000 C   0  0  0  0  0  0  0  0  0  0  0  0
    8.1628   -0.2625    0.0000 Cl  0  0  0  0  0  0  0  0  0  0  0  0
  1  2  1  0  0  0  0
  2  3  1  0  0  0  0
  3  4  1  0  0  0  0
  4  5  2  0  0  0  0
  5  6  1  0  0  0  0
  6  7  1  0  0  0  0
  7  8  1  0  0  0  0
  8  9  1  0  0  0  0
  8 10  2  0  0  0  0
 10 11  1  0  0  0  0
  2 11  1  0  0  0  0
  6 11  2  0  0  0  0
  3 12  1  0  0  0  0
 12 13  2  0  0  0  0
 12 14  2  0  0  0  0
 12 15  1  0  0  0  0
 15 16  2  0  0  0  0
 16 17  1  0  0  0  0
 17 18  2  0  0  0  0
 18 19  1  0  0  0  0
 19 20  2  0  0  0  0
 15 20  1  0  0  0  0
 20 21  1  0  0  0  0
M  END
> <Molecule Name>
CHEMBL174725

> <IUPAC>
6-bromo-2-(2-chlorobenzenesulfonyl)-1H,2H-thieno[3,2-d][1,2,3]diazaborinin-1-ol

> <Collections>
TrainingSet_Kleb_p_ALPerryman_JSF

> <ChEMBL_Data_Neisseria_g: Qualifier_for_MIC_Ng>
=

> <ChEMBL_Data_Neisseria_g: ASSAY_CHEMBLID>
CHEMBL858169

> <ChEMBL_Data_Neisseria_g: DESCRIPTION_of_Assay_Ng>
Minimum inhibitory concentration of compound against Neisseria gonorrhoeae W2

> <ChEMBL_Data_Neisseria_g: PUBMED_ID>
6379179

> <ChEMBL_Data_Neisseria_g: YEAR>
1984

> <ChEMBL_Data_Neisseria_g: JOURNAL>
J. Med. Chem.

> <ChEMBL_Data_Neisseria_g: VOLUME>
27

> <ChEMBL_Data_Neisseria_g: FIRST_PAGE>
947

> <ChEMBL_Data_Neisseria_g: MIC_vs_Neisseria_microg_per_mL>
1

> <ALogP>
4.089

> <Active>
1

> <Molecular_Weight>
405.483

$$$$

Generated by Molecular Materials Informatics

 41 46  0  0  0  0  0  0  0  0999 V2000
   -2.7921   -5.2070    0.0000 C   0  0  0  0  0  0  0  0  0  0  0  0
   -1.3250   -5.5192    0.0000 O   0  0  0  0  0  0  0  0  0  0  0  0
   -0.3210   -4.4048    0.0000 C   0  0  0  0  0  0  0  0  0  0  0  0
   -0.7841   -2.9780    0.0000 O   0  0  0  0  0  0  0  0  0  0  0  0
    1.1461   -4.7172    0.0000 C   0  0  0  0  0  0  0  0  0  0  0  0
    2.1501   -3.6026    0.0000 C   0  0  0  0  0  0  0  0  0  0  0  0
    3.6174   -3.9150    0.0000 C   0  0  0  0  0  0  0  0  0  0  0  0
    4.6214   -2.8006    0.0000 C   0  0  0  0  0  0  0  0  0  0  0  0
    6.0885   -3.1128    0.0000 C   0  0  0  0  0  0  0  0  0  0  0  0
    7.0925   -1.9984    0.0000 C   0  0  0  0  0  0  0  0  0  0  0  0
    6.6294   -0.5717    0.0000 O   0  0  0  0  0  0  0  0  0  0  0  0
    8.5596   -2.3108    0.0000 C   0  0  0  0  0  0  0  0  0  0  0  0
    9.0227   -3.7373    0.0000 C   0  0  0  0  0  0  0  0  0  0  0  0
    9.6326   -5.1079    0.0000 C   0  0  0  0  0  0  0  0  0  0  0  0
   11.1244   -4.9515    0.0000 C   0  0  0  0  0  0  0  0  0  0  0  0
   11.4366   -3.4844    0.0000 C   0  0  0  0  0  0  0  0  0  0  0  0
   10.1378   -2.7340    0.0000 O   0  0  0  0  0  0  0  0  0  0  0  0
   12.8633   -3.0213    0.0000 C   0  0  0  0  0  0  0  0  0  0  0  0
   13.1757   -1.5542    0.0000 O   0  0  0  0  0  0  0  0  0  0  0  0
   13.9779   -4.0253    0.0000 C   0  0  0  0  0  0  0  0  0  0  0  0
   15.4046   -3.5622    0.0000 C   0  0  0  0  0  0  0  0  0  0  0  0
   15.7168   -2.0951    0.0000 O   0  0  0  0  0  0  0  0  0  0  0  0
   16.5190   -4.5662    0.0000 C   0  0  0  0  0  0  0  0  0  0  0  0
   17.9457   -4.1032    0.0000 N   0  0  0  0  0  0  0  0  0  0  0  0
   18.2581   -2.6360    0.0000 C   0  0  0  0  0  0  0  0  0  0  0  0
   19.6848   -2.1730    0.0000 C   0  0  0  0  0  0  0  0  0  0  0  0
   19.9970   -0.7058    0.0000 N   0  0  0  0  0  0  0  0  0  0  0  0
   16.2066   -6.0334    0.0000 C   0  0  0  0  0  0  0  0  0  0  0  0
   14.7799   -6.4965    0.0000 C   0  0  0  0  0  0  0  0  0  0  0  0
   14.4677   -7.9637    0.0000 O   0  0  0  0  0  0  0  0  0  0  0  0
   13.6655   -5.4924    0.0000 C   0  0  0  0  0  0  0  0  0  0  0  0
   12.2388   -5.9555    0.0000 C   0  0  0  0  0  0  0  0  0  0  0  0
   11.9266   -7.4228    0.0000 O   0  0  0  0  0  0  0  0  0  0  0  0
    8.0187   -4.8519    0.0000 O   0  0  0  0  0  0  0  0  0  0  0  0
    6.5516   -4.5395    0.0000 C   0  0  0  0  0  0  0  0  0  0  0  0
    5.5476   -5.6539    0.0000 C   0  0  0  0  0  0  0  0  0  0  0  0
    6.0107   -7.0806    0.0000 O   0  0  0  0  0  0  0  0  0  0  0  0
    4.0805   -5.3417    0.0000 C   0  0  0  0  0  0  0  0  0  0  0  0
    3.0765   -6.4561    0.0000 C   0  0  0  0  0  0  0  0  0  0  0  0
    3.5396   -7.8828    0.0000 O   0  0  0  0  0  0  0  0  0  0  0  0
    1.6092   -6.1439    0.0000 O   0  0  0  0  0  0  0  0  0  0  0  0
  1  2  1  0  0  0  0
  2  3  1  0  0  0  0
  3  4  2  0  0  0  0
  3  5  1  0  0  0  0
  5  6  2  0  0  0  0
  6  7  1  0  0  0  0
  7  8  2  0  0  0  0
  8  9  1  0  0  0  0
  9 10  1  0  0  0  0
 10 11  1  0  0  0  0
 10 12  1  0  0  0  0
 12 13  1  0  0  0  0
 13 14  1  0  0  0  0
 14 15  1  0  0  0  0
 15 16  2  0  0  0  0
 16 17  1  0  0  0  0
 13 17  1  0  0  0  0
 16 18  1  0  0  0  0
 18 19  2  0  0  0  0
 18 20  1  0  0  0  0
 20 21  2  0  0  0  0
 21 22  1  0  0  0  0
 21 23  1  0  0  0  0
 23 24  1  0  0  0  0
 24 25  1  0  0  0  0
 25 26  1  0  0  0  0
 26 27  1  0  0  0  0
 23 28  2  0  0  0  0
 28 29  1  0  0  0  0
 29 30  1  0  0  0  0
 29 31  2  0  0  0  0
 20 31  1  0  0  0  0
 31 32  1  0  0  0  0
 15 32  1  0  0  0  0
 32 33  2  0  0  0  0
 13 34  1  0  0  0  0
 34 35  1  0  0  0  0
  9 35  2  0  0  0  0
 35 36  1  0  0  0  0
 36 37  1  0  0  0  0
 36 38  2  0  0  0  0
  7 38  1  0  0  0  0
 38 39  1  0  0  0  0
 39 40  2  0  0  0  0
 39 41  1  0  0  0  0
  5 41  1  0  0  0  0
M  END
> <Molecule Name>
CHEMBL174675

> <IUPAC>
methyl 7-[(2-aminoethyl)amino]-4',5,8,10'-tetrahydroxy-4,9,9'-trioxo-4,4',9,9'-tetrahydro-3H,3'H-spiro[naphtho[2,3-b]furan-2,2'-pyrano[3,2-g]isochromene]-7'-carboxylate

> <Collections>
Set2_NotListedAsBetaLactamResistant (mostly)

> <ChEMBL_Data_Neisseria_g: NUM_RO5_VIOLATIONS>
3

> <ChEMBL_Data_Neisseria_g: Qualifier_for_MIC_Ng>
=

> <ChEMBL_Data_Neisseria_g: ASSAY_CHEMBLID>
CHEMBL753613

> <ChEMBL_Data_Neisseria_g: DESCRIPTION_of_Assay_Ng>
In vitro antimicrobial activity against Neisseria gonorrhoeae L997

> <ChEMBL_Data_Neisseria_g: PUBMED_ID>
9083486

> <ChEMBL_Data_Neisseria_g: YEAR>
1997

> <ChEMBL_Data_Neisseria_g: JOURNAL>
J. Med. Chem.

> <ChEMBL_Data_Neisseria_g: VOLUME>
40

> <ChEMBL_Data_Neisseria_g: FIRST_PAGE>
967

> <ChEMBL_Data_Neisseria_g: MIC_vs_Neisseria_microg_per_mL>
64

> <ALogP>
0.413

> <Active>
0

> <Molecular_Weight>
566.47

$$$$

Generated by Molecular Materials Informatics

 17 18  0  0  0  0  0  0  0  0999 V2000
    8.8207    3.4354    0.0000 C   0  0  0  0  0  0  0  0  0  0  0  0
    7.5216    2.6854    0.0000 C   0  0  0  0  0  0  0  0  0  0  0  0
    6.2225    3.4354    0.0000 C   0  0  0  0  0  0  0  0  0  0  0  0
    4.9237    2.6854    0.0000 S   0  0  0  0  0  0  0  0  0  0  0  0
    4.1737    3.9845    0.0000 O   0  0  0  0  0  0  0  0  0  0  0  0
    5.6736    1.3865    0.0000 O   0  0  0  0  0  0  0  0  0  0  0  0
    3.6246    1.9354    0.0000 N   0  0  0  0  0  0  0  0  0  0  0  0
    3.6246    0.4354    0.0000 N   0  0  0  0  0  0  0  0  0  0  0  0
    2.3255   -0.3146    0.0000 C   0  0  0  0  0  0  0  0  0  0  0  0
    1.0264    0.4354    0.0000 C   0  0  0  0  0  0  0  0  0  0  0  0
   -0.4001   -0.0280    0.0000 S   0  0  0  0  0  0  0  0  0  0  0  0
   -1.2817    1.1854    0.0000 C   0  0  0  0  0  0  0  0  0  0  0  0
   -2.7817    1.1854    0.0000 C   0  0  0  0  0  0  0  0  0  0  0  0
   -0.4001    2.3990    0.0000 C   0  0  0  0  0  0  0  0  0  0  0  0
    1.0264    1.9354    0.0000 C   0  0  0  0  0  0  0  0  0  0  0  0
    2.3255    2.6854    0.0000 B   0  0  0  0  0  0  0  0  0  0  0  0
    2.3255    4.1854    0.0000 O   0  0  0  0  0  0  0  0  0  0  0  0
  1  2  1  0  0  0  0
  2  3  1  0  0  0  0
  3  4  1  0  0  0  0
  4  5  2  0  0  0  0
  4  6  2  0  0  0  0
  4  7  1  0  0  0  0
  7  8  1  0  0  0  0
  8  9  2  0  0  0  0
  9 10  1  0  0  0  0
 10 11  1  0  0  0  0
 11 12  1  0  0  0  0
 12 13  1  0  0  0  0
 12 14  2  0  0  0  0
 14 15  1  0  0  0  0
 10 15  2  0  0  0  0
 15 16  1  0  0  0  0
  7 16  1  0  0  0  0
 16 17  1  0  0  0  0
M  END
> <Molecule Name>
CHEMBL174539

> <IUPAC>
6-methyl-2-(propane-1-sulfonyl)-1H,2H-thieno[3,2-d][1,2,3]diazaborinin-1-ol

> <Collections>
TrainingSet_Kleb_p_ALPerryman_JSF

> <ChEMBL_Data_Neisseria_g: Qualifier_for_MIC_Ng>
=

> <ChEMBL_Data_Neisseria_g: ASSAY_CHEMBLID>
CHEMBL753615

> <ChEMBL_Data_Neisseria_g: DESCRIPTION_of_Assay_Ng>
Minimum inhibitory concentration of compound against Neisseria gonorrhoeae AS 7720

> <ChEMBL_Data_Neisseria_g: PUBMED_ID>
6379179

> <ChEMBL_Data_Neisseria_g: YEAR>
1984

> <ChEMBL_Data_Neisseria_g: JOURNAL>
J. Med. Chem.

> <ChEMBL_Data_Neisseria_g: VOLUME>
27

> <ChEMBL_Data_Neisseria_g: FIRST_PAGE>
947

> <ChEMBL_Data_Neisseria_g: MIC_vs_Neisseria_microg_per_mL>
1

> <ALogP>
2.298

> <Active>
1

> <Molecular_Weight>
272.152

$$$$

Generated by Molecular Materials Informatics

 18 19  0  0  0  0  0  0  0  0999 V2000
   -2.4681   -4.0687    0.0000 C   0  0  0  0  0  0  0  0  0  0  0  0
   -2.4681   -2.5687    0.0000 N   0  0  0  0  0  0  0  0  0  0  0  0
   -3.7670   -1.8187    0.0000 C   0  0  0  0  0  0  0  0  0  0  0  0
   -1.1691   -1.8187    0.0000 S   0  0  0  0  0  0  0  0  0  0  0  0
   -0.4191   -3.1178    0.0000 O   0  0  0  0  0  0  0  0  0  0  0  0
   -1.9190   -0.5197    0.0000 O   0  0  0  0  0  0  0  0  0  0  0  0
    0.1300   -1.0688    0.0000 N   0  0  0  0  0  0  0  0  0  0  0  0
    0.1300    0.4312    0.0000 N   0  0  0  0  0  0  0  0  0  0  0  0
    1.4289    1.1812    0.0000 C   0  0  0  0  0  0  0  0  0  0  0  0
    2.7279    0.4312    0.0000 C   0  0  0  0  0  0  0  0  0  0  0  0
    4.0270    1.1812    0.0000 C   0  0  0  0  0  0  0  0  0  0  0  0
    5.3260    0.4312    0.0000 C   0  0  0  0  0  0  0  0  0  0  0  0
    6.6249    1.1812    0.0000 C   0  0  0  0  0  0  0  0  0  0  0  0
    5.3260   -1.0688    0.0000 C   0  0  0  0  0  0  0  0  0  0  0  0
    4.0270   -1.8187    0.0000 C   0  0  0  0  0  0  0  0  0  0  0  0
    2.7279   -1.0688    0.0000 C   0  0  0  0  0  0  0  0  0  0  0  0
    1.4289   -1.8187    0.0000 B   0  0  0  0  0  0  0  0  0  0  0  0
    1.4289   -3.3187    0.0000 O   0  0  0  0  0  0  0  0  0  0  0  0
  1  2  1  0  0  0  0
  2  3  1  0  0  0  0
  2  4  1  0  0  0  0
  4  5  2  0  0  0  0
  4  6  2  0  0  0  0
  4  7  1  0  0  0  0
  7  8  1  0  0  0  0
  8  9  2  0  0  0  0
  9 10  1  0  0  0  0
 10 11  2  0  0  0  0
 11 12  1  0  0  0  0
 12 13  1  0  0  0  0
 12 14  2  0  0  0  0
 14 15  1  0  0  0  0
 15 16  2  0  0  0  0
 10 16  1  0  0  0  0
 16 17  1  0  0  0  0
  7 17  1  0  0  0  0
 17 18  1  0  0  0  0
M  END
> <Molecule Name>
CHEMBL174266

> <IUPAC>
1-hydroxy-N,N,6-trimethyl-1,2-dihydro-2,3,1-benzodiazaborinine-2-sulfonamide

> <Collections>
TrainingSet_Kleb_p_ALPerryman_JSF

> <ChEMBL_Data_Neisseria_g: Qualifier_for_MIC_Ng>
=

> <ChEMBL_Data_Neisseria_g: ASSAY_CHEMBLID>
CHEMBL753615

> <ChEMBL_Data_Neisseria_g: DESCRIPTION_of_Assay_Ng>
Minimum inhibitory concentration of compound against Neisseria gonorrhoeae AS 7720

> <ChEMBL_Data_Neisseria_g: PUBMED_ID>
6379179

> <ChEMBL_Data_Neisseria_g: YEAR>
1984

> <ChEMBL_Data_Neisseria_g: JOURNAL>
J. Med. Chem.

> <ChEMBL_Data_Neisseria_g: VOLUME>
27

> <ChEMBL_Data_Neisseria_g: FIRST_PAGE>
947

> <ChEMBL_Data_Neisseria_g: MIC_vs_Neisseria_microg_per_mL>
8

> <ALogP>
1.404

> <Active>
1

> <Molecular_Weight>
267.112

$$$$

Generated by Molecular Materials Informatics

 21 23  0  0  0  0  0  0  0  0999 V2000
   -2.7818   -1.3729    0.0000 C   0  0  0  0  0  0  0  0  0  0  0  0
   -1.2818   -1.3729    0.0000 C   0  0  0  0  0  0  0  0  0  0  0  0
   -0.4001   -0.1594    0.0000 C   0  0  0  0  0  0  0  0  0  0  0  0
    1.0264   -0.6229    0.0000 C   0  0  0  0  0  0  0  0  0  0  0  0
    2.3255    0.1271    0.0000 B   0  0  0  0  0  0  0  0  0  0  0  0
    2.3255    1.6271    0.0000 O   0  0  0  0  0  0  0  0  0  0  0  0
    3.6246   -0.6229    0.0000 N   0  0  0  0  0  0  0  0  0  0  0  0
    3.6246   -2.1229    0.0000 N   0  0  0  0  0  0  0  0  0  0  0  0
    2.3255   -2.8729    0.0000 C   0  0  0  0  0  0  0  0  0  0  0  0
    1.0264   -2.1229    0.0000 C   0  0  0  0  0  0  0  0  0  0  0  0
   -0.4001   -2.5865    0.0000 S   0  0  0  0  0  0  0  0  0  0  0  0
    4.9237    0.1271    0.0000 S   0  0  0  0  0  0  0  0  0  0  0  0
    5.6737   -1.1720    0.0000 O   0  0  0  0  0  0  0  0  0  0  0  0
    4.1737    1.4260    0.0000 O   0  0  0  0  0  0  0  0  0  0  0  0
    6.2226    0.8771    0.0000 C   0  0  0  0  0  0  0  0  0  0  0  0
    6.2226    2.3771    0.0000 C   0  0  0  0  0  0  0  0  0  0  0  0
    7.5217    3.1271    0.0000 C   0  0  0  0  0  0  0  0  0  0  0  0
    8.8208    2.3771    0.0000 C   0  0  0  0  0  0  0  0  0  0  0  0
    8.8208    0.8771    0.0000 C   0  0  0  0  0  0  0  0  0  0  0  0
    7.5217    0.1271    0.0000 C   0  0  0  0  0  0  0  0  0  0  0  0
    7.5217   -1.3729    0.0000 Cl  0  0  0  0  0  0  0  0  0  0  0  0
  1  2  1  0  0  0  0
  2  3  2  0  0  0  0
  3  4  1  0  0  0  0
  4  5  1  0  0  0  0
  5  6  1  0  0  0  0
  5  7  1  0  0  0  0
  7  8  1  0  0  0  0
  8  9  2  0  0  0  0
  9 10  1  0  0  0  0
  4 10  2  0  0  0  0
 10 11  1  0  0  0  0
  2 11  1  0  0  0  0
  7 12  1  0  0  0  0
 12 13  2  0  0  0  0
 12 14  2  0  0  0  0
 12 15  1  0  0  0  0
 15 16  2  0  0  0  0
 16 17  1  0  0  0  0
 17 18  2  0  0  0  0
 18 19  1  0  0  0  0
 19 20  2  0  0  0  0
 15 20  1  0  0  0  0
 20 21  1  0  0  0  0
M  END
> <Molecule Name>
CHEMBL173781

> <IUPAC>
2-(2-chlorobenzenesulfonyl)-6-methyl-1H,2H-thieno[3,2-d][1,2,3]diazaborinin-1-ol

> <Collections>
TrainingSet_Kleb_p_ALPerryman_JSF

> <ChEMBL_Data_Neisseria_g: Qualifier_for_MIC_Ng>
=

> <ChEMBL_Data_Neisseria_g: ASSAY_CHEMBLID>
CHEMBL753615

> <ChEMBL_Data_Neisseria_g: DESCRIPTION_of_Assay_Ng>
Minimum inhibitory concentration of compound against Neisseria gonorrhoeae AS 7720

> <ChEMBL_Data_Neisseria_g: PUBMED_ID>
6379179

> <ChEMBL_Data_Neisseria_g: YEAR>
1984

> <ChEMBL_Data_Neisseria_g: JOURNAL>
J. Med. Chem.

> <ChEMBL_Data_Neisseria_g: VOLUME>
27

> <ChEMBL_Data_Neisseria_g: FIRST_PAGE>
947

> <ChEMBL_Data_Neisseria_g: MIC_vs_Neisseria_microg_per_mL>
0.5

> <ALogP>
3.667

> <Active>
1

> <Molecular_Weight>
340.613

$$$$

Generated by Molecular Materials Informatics

 22 24  0  0  0  0  0  0  0  0999 V2000
   -5.7805   -4.6499    0.0000 C   0  0  0  0  0  0  0  0  0  0  0  0
   -4.4815   -3.8999    0.0000 C   0  0  0  0  0  0  0  0  0  0  0  0
   -4.4815   -2.4000    0.0000 C   0  0  0  0  0  0  0  0  0  0  0  0
   -3.1824   -1.6500    0.0000 C   0  0  0  0  0  0  0  0  0  0  0  0
   -1.8836   -2.4000    0.0000 C   0  0  0  0  0  0  0  0  0  0  0  0
   -1.8836   -3.8999    0.0000 C   0  0  0  0  0  0  0  0  0  0  0  0
   -3.1824   -4.6499    0.0000 C   0  0  0  0  0  0  0  0  0  0  0  0
   -0.5845   -1.6500    0.0000 S   0  0  0  0  0  0  0  0  0  0  0  0
    0.1655   -2.9491    0.0000 O   0  0  0  0  0  0  0  0  0  0  0  0
   -1.3345   -0.3509    0.0000 O   0  0  0  0  0  0  0  0  0  0  0  0
    0.7145   -0.9000    0.0000 N   0  0  0  0  0  0  0  0  0  0  0  0
    0.7145    0.5999    0.0000 N   0  0  0  0  0  0  0  0  0  0  0  0
    2.0134    1.3499    0.0000 C   0  0  0  0  0  0  0  0  0  0  0  0
    3.3125    0.5999    0.0000 C   0  0  0  0  0  0  0  0  0  0  0  0
    4.6115    1.3499    0.0000 C   0  0  0  0  0  0  0  0  0  0  0  0
    5.9106    0.5999    0.0000 C   0  0  0  0  0  0  0  0  0  0  0  0
    7.2094    1.3499    0.0000 C   0  0  0  0  0  0  0  0  0  0  0  0
    5.9106   -0.9000    0.0000 C   0  0  0  0  0  0  0  0  0  0  0  0
    4.6115   -1.6500    0.0000 C   0  0  0  0  0  0  0  0  0  0  0  0
    3.3125   -0.9000    0.0000 C   0  0  0  0  0  0  0  0  0  0  0  0
    2.0134   -1.6500    0.0000 B   0  0  0  0  0  0  0  0  0  0  0  0
    2.0134   -3.1500    0.0000 O   0  0  0  0  0  0  0  0  0  0  0  0
  1  2  1  0  0  0  0
  2  3  2  0  0  0  0
  3  4  1  0  0  0  0
  4  5  2  0  0  0  0
  5  6  1  0  0  0  0
  6  7  2  0  0  0  0
  2  7  1  0  0  0  0
  5  8  1  0  0  0  0
  8  9  2  0  0  0  0
  8 10  2  0  0  0  0
  8 11  1  0  0  0  0
 11 12  1  0  0  0  0
 12 13  2  0  0  0  0
 13 14  1  0  0  0  0
 14 15  2  0  0  0  0
 15 16  1  0  0  0  0
 16 17  1  0  0  0  0
 16 18  2  0  0  0  0
 18 19  1  0  0  0  0
 19 20  2  0  0  0  0
 14 20  1  0  0  0  0
 20 21  1  0  0  0  0
 11 21  1  0  0  0  0
 21 22  1  0  0  0  0
M  END
> <Molecule Name>
CHEMBL173771

> <IUPAC>
6-methyl-2-(4-methylbenzenesulfonyl)-1,2-dihydro-2,3,1-benzodiazaborinin-1-ol

> <Collections>
TrainingSet_Kleb_p_ALPerryman_JSF

> <ChEMBL_Data_Neisseria_g: Qualifier_for_MIC_Ng>
=

> <ChEMBL_Data_Neisseria_g: ASSAY_CHEMBLID>
CHEMBL858169

> <ChEMBL_Data_Neisseria_g: DESCRIPTION_of_Assay_Ng>
Minimum inhibitory concentration of compound against Neisseria gonorrhoeae W2

> <ChEMBL_Data_Neisseria_g: PUBMED_ID>
6379179

> <ChEMBL_Data_Neisseria_g: YEAR>
1984

> <ChEMBL_Data_Neisseria_g: JOURNAL>
J. Med. Chem.

> <ChEMBL_Data_Neisseria_g: VOLUME>
27

> <ChEMBL_Data_Neisseria_g: FIRST_PAGE>
947

> <ChEMBL_Data_Neisseria_g: MIC_vs_Neisseria_microg_per_mL>
8

> <ALogP>
3.876

> <Active>
1

> <Molecular_Weight>
314.167

$$$$

Generated by Molecular Materials Informatics

 16 17  0  0  0  0  0  0  0  0999 V2000
    7.8140    2.6854    0.0000 C   0  0  0  0  0  0  0  0  0  0  0  0
    6.5149    3.4354    0.0000 C   0  0  0  0  0  0  0  0  0  0  0  0
    5.2160    2.6854    0.0000 S   0  0  0  0  0  0  0  0  0  0  0  0
    4.4660    3.9845    0.0000 O   0  0  0  0  0  0  0  0  0  0  0  0
    5.9660    1.3865    0.0000 O   0  0  0  0  0  0  0  0  0  0  0  0
    3.9169    1.9354    0.0000 N   0  0  0  0  0  0  0  0  0  0  0  0
    3.9169    0.4354    0.0000 N   0  0  0  0  0  0  0  0  0  0  0  0
    2.6178   -0.3146    0.0000 C   0  0  0  0  0  0  0  0  0  0  0  0
    1.3187    0.4354    0.0000 C   0  0  0  0  0  0  0  0  0  0  0  0
   -0.1078   -0.0281    0.0000 S   0  0  0  0  0  0  0  0  0  0  0  0
   -0.9895    1.1854    0.0000 C   0  0  0  0  0  0  0  0  0  0  0  0
   -2.4895    1.1854    0.0000 Br  0  0  0  0  0  0  0  0  0  0  0  0
   -0.1078    2.3990    0.0000 C   0  0  0  0  0  0  0  0  0  0  0  0
    1.3187    1.9354    0.0000 C   0  0  0  0  0  0  0  0  0  0  0  0
    2.6178    2.6854    0.0000 B   0  0  0  0  0  0  0  0  0  0  0  0
    2.6178    4.1854    0.0000 O   0  0  0  0  0  0  0  0  0  0  0  0
  1  2  1  0  0  0  0
  2  3  1  0  0  0  0
  3  4  2  0  0  0  0
  3  5  2  0  0  0  0
  3  6  1  0  0  0  0
  6  7  1  0  0  0  0
  7  8  2  0  0  0  0
  8  9  1  0  0  0  0
  9 10  1  0  0  0  0
 10 11  1  0  0  0  0
 11 12  1  0  0  0  0
 11 13  2  0  0  0  0
 13 14  1  0  0  0  0
  9 14  2  0  0  0  0
 14 15  1  0  0  0  0
  6 15  1  0  0  0  0
 15 16  1  0  0  0  0
M  END
> <Molecule Name>
CHEMBL173524

> <IUPAC>
6-bromo-2-(ethanesulfonyl)-1H,2H-thieno[3,2-d][1,2,3]diazaborinin-1-ol

> <Collections>
TrainingSet_Kleb_p_ALPerryman_JSF

> <ChEMBL_Data_Neisseria_g: Qualifier_for_MIC_Ng>
=

> <ChEMBL_Data_Neisseria_g: ASSAY_CHEMBLID>
CHEMBL753615

> <ChEMBL_Data_Neisseria_g: DESCRIPTION_of_Assay_Ng>
Minimum inhibitory concentration of compound against Neisseria gonorrhoeae AS 7720

> <ChEMBL_Data_Neisseria_g: PUBMED_ID>
6379179

> <ChEMBL_Data_Neisseria_g: YEAR>
1984

> <ChEMBL_Data_Neisseria_g: JOURNAL>
J. Med. Chem.

> <ChEMBL_Data_Neisseria_g: VOLUME>
27

> <ChEMBL_Data_Neisseria_g: FIRST_PAGE>
947

> <ChEMBL_Data_Neisseria_g: MIC_vs_Neisseria_microg_per_mL>
2

> <ALogP>
2.197

> <Active>
1

> <Molecular_Weight>
322.995

$$$$

Generated by Molecular Materials Informatics

 24 26  0  0  0  0  0  0  0  0999 V2000
   10.8342    7.0917    0.0000 C   0  0  0  0  0  0  0  0  0  0  0  0
    9.5351    6.3416    0.0000 C   0  0  0  0  0  0  0  0  0  0  0  0
    8.2362    7.0917    0.0000 O   0  0  0  0  0  0  0  0  0  0  0  0
    9.5351    4.8417    0.0000 N   0  0  0  0  0  0  0  0  0  0  0  0
    8.2362    4.0917    0.0000 C   0  0  0  0  0  0  0  0  0  0  0  0
    8.2362    2.5917    0.0000 C   0  0  0  0  0  0  0  0  0  0  0  0
    6.9371    1.8416    0.0000 C   0  0  0  0  0  0  0  0  0  0  0  0
    5.6380    2.5917    0.0000 C   0  0  0  0  0  0  0  0  0  0  0  0
    5.6380    4.0917    0.0000 C   0  0  0  0  0  0  0  0  0  0  0  0
    6.9371    4.8417    0.0000 C   0  0  0  0  0  0  0  0  0  0  0  0
    4.3391    1.8416    0.0000 S   0  0  0  0  0  0  0  0  0  0  0  0
    3.5891    3.1407    0.0000 O   0  0  0  0  0  0  0  0  0  0  0  0
    5.0891    0.5427    0.0000 O   0  0  0  0  0  0  0  0  0  0  0  0
    3.0400    1.0917    0.0000 N   0  0  0  0  0  0  0  0  0  0  0  0
    3.0400   -0.4083    0.0000 N   0  0  0  0  0  0  0  0  0  0  0  0
    1.7409   -1.1583    0.0000 C   0  0  0  0  0  0  0  0  0  0  0  0
    0.4419   -0.4083    0.0000 C   0  0  0  0  0  0  0  0  0  0  0  0
   -0.9847   -0.8718    0.0000 S   0  0  0  0  0  0  0  0  0  0  0  0
   -1.8663    0.3417    0.0000 C   0  0  0  0  0  0  0  0  0  0  0  0
   -3.3663    0.3417    0.0000 Br  0  0  0  0  0  0  0  0  0  0  0  0
   -0.9847    1.5553    0.0000 C   0  0  0  0  0  0  0  0  0  0  0  0
    0.4419    1.0917    0.0000 C   0  0  0  0  0  0  0  0  0  0  0  0
    1.7409    1.8416    0.0000 B   0  0  0  0  0  0  0  0  0  0  0  0
    1.7409    3.3417    0.0000 O   0  0  0  0  0  0  0  0  0  0  0  0
  1  2  1  0  0  0  0
  2  3  2  0  0  0  0
  2  4  1  0  0  0  0
  4  5  1  0  0  0  0
  5  6  2  0  0  0  0
  6  7  1  0  0  0  0
  7  8  2  0  0  0  0
  8  9  1  0  0  0  0
  9 10  2  0  0  0  0
  5 10  1  0  0  0  0
  8 11  1  0  0  0  0
 11 12  2  0  0  0  0
 11 13  2  0  0  0  0
 11 14  1  0  0  0  0
 14 15  1  0  0  0  0
 15 16  2  0  0  0  0
 16 17  1  0  0  0  0
 17 18  1  0  0  0  0
 18 19  1  0  0  0  0
 19 20  1  0  0  0  0
 19 21  2  0  0  0  0
 21 22  1  0  0  0  0
 17 22  2  0  0  0  0
 22 23  1  0  0  0  0
 14 23  1  0  0  0  0
 23 24  1  0  0  0  0
M  END
> <Molecule Name>
CHEMBL173423

> <IUPAC>
N-[4-({6-bromo-1-hydroxy-1H,2H-thieno[3,2-d][1,2,3]diazaborinin-2-yl}sulfonyl)phenyl]acetamide

> <Collections>
TrainingSet_Kleb_p_ALPerryman_JSF

> <ChEMBL_Data_Neisseria_g: Qualifier_for_MIC_Ng>
=

> <ChEMBL_Data_Neisseria_g: ASSAY_CHEMBLID>
CHEMBL753615

> <ChEMBL_Data_Neisseria_g: DESCRIPTION_of_Assay_Ng>
Minimum inhibitory concentration of compound against Neisseria gonorrhoeae AS 7720

> <ChEMBL_Data_Neisseria_g: PUBMED_ID>
6379179

> <ChEMBL_Data_Neisseria_g: YEAR>
1984

> <ChEMBL_Data_Neisseria_g: JOURNAL>
J. Med. Chem.

> <ChEMBL_Data_Neisseria_g: VOLUME>
27

> <ChEMBL_Data_Neisseria_g: FIRST_PAGE>
947

> <ChEMBL_Data_Neisseria_g: MIC_vs_Neisseria_microg_per_mL>
1

> <ALogP>
2.545

> <Active>
1

> <Molecular_Weight>
428.089

$$$$

Generated by Molecular Materials Informatics

 25 27  0  0  0  0  0  0  0  0999 V2000
   10.8342    7.0917    0.0000 C   0  0  0  0  0  0  0  0  0  0  0  0
    9.5351    6.3416    0.0000 C   0  0  0  0  0  0  0  0  0  0  0  0
    8.2362    7.0917    0.0000 O   0  0  0  0  0  0  0  0  0  0  0  0
    9.5351    4.8417    0.0000 N   0  0  0  0  0  0  0  0  0  0  0  0
    8.2362    4.0917    0.0000 C   0  0  0  0  0  0  0  0  0  0  0  0
    8.2362    2.5917    0.0000 C   0  0  0  0  0  0  0  0  0  0  0  0
    6.9371    1.8416    0.0000 C   0  0  0  0  0  0  0  0  0  0  0  0
    5.6380    2.5917    0.0000 C   0  0  0  0  0  0  0  0  0  0  0  0
    5.6380    4.0917    0.0000 C   0  0  0  0  0  0  0  0  0  0  0  0
    4.3391    4.8417    0.0000 Cl  0  0  0  0  0  0  0  0  0  0  0  0
    6.9371    4.8417    0.0000 C   0  0  0  0  0  0  0  0  0  0  0  0
    4.3391    1.8416    0.0000 S   0  0  0  0  0  0  0  0  0  0  0  0
    3.5891    3.1407    0.0000 O   0  0  0  0  0  0  0  0  0  0  0  0
    5.0891    0.5427    0.0000 O   0  0  0  0  0  0  0  0  0  0  0  0
    3.0400    1.0917    0.0000 N   0  0  0  0  0  0  0  0  0  0  0  0
    3.0400   -0.4083    0.0000 N   0  0  0  0  0  0  0  0  0  0  0  0
    1.7409   -1.1583    0.0000 C   0  0  0  0  0  0  0  0  0  0  0  0
    0.4419   -0.4083    0.0000 C   0  0  0  0  0  0  0  0  0  0  0  0
   -0.9847   -0.8718    0.0000 S   0  0  0  0  0  0  0  0  0  0  0  0
   -1.8663    0.3417    0.0000 C   0  0  0  0  0  0  0  0  0  0  0  0
   -3.3663    0.3417    0.0000 Br  0  0  0  0  0  0  0  0  0  0  0  0
   -0.9847    1.5553    0.0000 C   0  0  0  0  0  0  0  0  0  0  0  0
    0.4419    1.0917    0.0000 C   0  0  0  0  0  0  0  0  0  0  0  0
    1.7409    1.8416    0.0000 B   0  0  0  0  0  0  0  0  0  0  0  0
    1.7409    3.3417    0.0000 O   0  0  0  0  0  0  0  0  0  0  0  0
  1  2  1  0  0  0  0
  2  3  2  0  0  0  0
  2  4  1  0  0  0  0
  4  5  1  0  0  0  0
  5  6  2  0  0  0  0
  6  7  1  0  0  0  0
  7  8  2  0  0  0  0
  8  9  1  0  0  0  0
  9 10  1  0  0  0  0
  9 11  2  0  0  0  0
  5 11  1  0  0  0  0
  8 12  1  0  0  0  0
 12 13  2  0  0  0  0
 12 14  2  0  0  0  0
 12 15  1  0  0  0  0
 15 16  1  0  0  0  0
 16 17  2  0  0  0  0
 17 18  1  0  0  0  0
 18 19  1  0  0  0  0
 19 20  1  0  0  0  0
 20 21  1  0  0  0  0
 20 22  2  0  0  0  0
 22 23  1  0  0  0  0
 18 23  2  0  0  0  0
 23 24  1  0  0  0  0
 15 24  1  0  0  0  0
 24 25  1  0  0  0  0
M  END
> <Molecule Name>
CHEMBL173297

> <IUPAC>
N-[4-({6-bromo-1-hydroxy-1H,2H-thieno[3,2-d][1,2,3]diazaborinin-2-yl}sulfonyl)-3-chlorophenyl]acetamide

> <Collections>
TrainingSet_Kleb_p_ALPerryman_JSF

> <ChEMBL_Data_Neisseria_g: Qualifier_for_MIC_Ng>
=

> <ChEMBL_Data_Neisseria_g: ASSAY_CHEMBLID>
CHEMBL753615

> <ChEMBL_Data_Neisseria_g: DESCRIPTION_of_Assay_Ng>
Minimum inhibitory concentration of compound against Neisseria gonorrhoeae AS 7720

> <ChEMBL_Data_Neisseria_g: PUBMED_ID>
6379179

> <ChEMBL_Data_Neisseria_g: YEAR>
1984

> <ChEMBL_Data_Neisseria_g: JOURNAL>
J. Med. Chem.

> <ChEMBL_Data_Neisseria_g: VOLUME>
27

> <ChEMBL_Data_Neisseria_g: FIRST_PAGE>
947

> <ChEMBL_Data_Neisseria_g: MIC_vs_Neisseria_microg_per_mL>
1

> <ALogP>
3.21

> <Active>
1

> <Molecular_Weight>
462.534

$$$$

Generated by Molecular Materials Informatics

 41 46  0  0  0  0  0  0  0  0999 V2000
   -3.2233   -5.2070    0.0000 C   0  0  0  0  0  0  0  0  0  0  0  0
   -1.7562   -5.5192    0.0000 O   0  0  0  0  0  0  0  0  0  0  0  0
   -0.7522   -4.4048    0.0000 C   0  0  0  0  0  0  0  0  0  0  0  0
   -1.2153   -2.9781    0.0000 O   0  0  0  0  0  0  0  0  0  0  0  0
    0.7149   -4.7172    0.0000 C   0  0  0  0  0  0  0  0  0  0  0  0
    1.7189   -3.6026    0.0000 C   0  0  0  0  0  0  0  0  0  0  0  0
    3.1862   -3.9150    0.0000 C   0  0  0  0  0  0  0  0  0  0  0  0
    4.1902   -2.8006    0.0000 C   0  0  0  0  0  0  0  0  0  0  0  0
    5.6573   -3.1128    0.0000 C   0  0  0  0  0  0  0  0  0  0  0  0
    6.6613   -1.9984    0.0000 C   0  0  0  0  0  0  0  0  0  0  0  0
    6.1982   -0.5717    0.0000 O   0  0  0  0  0  0  0  0  0  0  0  0
    8.1284   -2.3108    0.0000 C   0  0  0  0  0  0  0  0  0  0  0  0
    8.5915   -3.7373    0.0000 C   0  0  0  0  0  0  0  0  0  0  0  0
    9.2013   -5.1079    0.0000 C   0  0  0  0  0  0  0  0  0  0  0  0
   10.6931   -4.9515    0.0000 C   0  0  0  0  0  0  0  0  0  0  0  0
   11.0053   -3.4844    0.0000 C   0  0  0  0  0  0  0  0  0  0  0  0
    9.7066   -2.7341    0.0000 O   0  0  0  0  0  0  0  0  0  0  0  0
   12.4321   -3.0213    0.0000 C   0  0  0  0  0  0  0  0  0  0  0  0
   12.7444   -1.5542    0.0000 O   0  0  0  0  0  0  0  0  0  0  0  0
   13.5466   -4.0253    0.0000 C   0  0  0  0  0  0  0  0  0  0  0  0
   14.9733   -3.5622    0.0000 C   0  0  0  0  0  0  0  0  0  0  0  0
   15.2855   -2.0951    0.0000 O   0  0  0  0  0  0  0  0  0  0  0  0
   16.0877   -4.5662    0.0000 C   0  0  0  0  0  0  0  0  0  0  0  0
   17.5144   -4.1032    0.0000 N   0  0  0  0  0  0  0  0  0  0  0  0
   18.6288   -5.1072    0.0000 C   0  0  0  0  0  0  0  0  0  0  0  0
   20.0555   -4.6441    0.0000 C   0  0  0  0  0  0  0  0  0  0  0  0
   21.4823   -4.1810    0.0000 N   0  0  0  0  0  0  0  0  0  0  0  0
   15.7753   -6.0333    0.0000 C   0  0  0  0  0  0  0  0  0  0  0  0
   14.3486   -6.4964    0.0000 C   0  0  0  0  0  0  0  0  0  0  0  0
   14.0364   -7.9637    0.0000 O   0  0  0  0  0  0  0  0  0  0  0  0
   13.2342   -5.4924    0.0000 C   0  0  0  0  0  0  0  0  0  0  0  0
   11.8075   -5.9555    0.0000 C   0  0  0  0  0  0  0  0  0  0  0  0
   11.4953   -7.4228    0.0000 O   0  0  0  0  0  0  0  0  0  0  0  0
    7.5875   -4.8519    0.0000 O   0  0  0  0  0  0  0  0  0  0  0  0
    6.1204   -4.5395    0.0000 C   0  0  0  0  0  0  0  0  0  0  0  0
    5.1164   -5.6539    0.0000 C   0  0  0  0  0  0  0  0  0  0  0  0
    5.5795   -7.0806    0.0000 O   0  0  0  0  0  0  0  0  0  0  0  0
    3.6493   -5.3417    0.0000 C   0  0  0  0  0  0  0  0  0  0  0  0
    2.6453   -6.4561    0.0000 C   0  0  0  0  0  0  0  0  0  0  0  0
    3.1084   -7.8828    0.0000 O   0  0  0  0  0  0  0  0  0  0  0  0
    1.1780   -6.1439    0.0000 O   0  0  0  0  0  0  0  0  0  0  0  0
  1  2  1  0  0  0  0
  2  3  1  0  0  0  0
  3  4  2  0  0  0  0
  3  5  1  0  0  0  0
  5  6  2  0  0  0  0
  6  7  1  0  0  0  0
  7  8  2  0  0  0  0
  8  9  1  0  0  0  0
  9 10  1  0  0  0  0
 10 11  1  0  0  0  0
 10 12  1  0  0  0  0
 12 13  1  0  0  0  0
 13 14  1  0  0  0  0
 14 15  1  0  0  0  0
 15 16  2  0  0  0  0
 16 17  1  0  0  0  0
 13 17  1  0  0  0  0
 16 18  1  0  0  0  0
 18 19  2  0  0  0  0
 18 20  1  0  0  0  0
 20 21  2  0  0  0  0
 21 22  1  0  0  0  0
 21 23  1  0  0  0  0
 23 24  1  0  0  0  0
 24 25  1  0  0  0  0
 25 26  1  0  0  0  0
 26 27  3  0  0  0  0
 23 28  2  0  0  0  0
 28 29  1  0  0  0  0
 29 30  1  0  0  0  0
 29 31  2  0  0  0  0
 20 31  1  0  0  0  0
 31 32  1  0  0  0  0
 15 32  1  0  0  0  0
 32 33  2  0  0  0  0
 13 34  1  0  0  0  0
 34 35  1  0  0  0  0
  9 35  2  0  0  0  0
 35 36  1  0  0  0  0
 36 37  1  0  0  0  0
 36 38  2  0  0  0  0
  7 38  1  0  0  0  0
 38 39  1  0  0  0  0
 39 40  2  0  0  0  0
 39 41  1  0  0  0  0
  5 41  1  0  0  0  0
M  END
> <Molecule Name>
CHEMBL173114

> <IUPAC>
methyl 7-[(cyanomethyl)amino]-4',5,8,10'-tetrahydroxy-4,9,9'-trioxo-4,4',9,9'-tetrahydro-3H,3'H-spiro[naphtho[2,3-b]furan-2,2'-pyrano[3,2-g]isochromene]-7'-carboxylate

> <Collections>
Set2_NotListedAsBetaLactamResistant (mostly)

> <ChEMBL_Data_Neisseria_g: NUM_RO5_VIOLATIONS>
2

> <ChEMBL_Data_Neisseria_g: Qualifier_for_MIC_Ng>
=

> <ChEMBL_Data_Neisseria_g: ASSAY_CHEMBLID>
CHEMBL753613

> <ChEMBL_Data_Neisseria_g: DESCRIPTION_of_Assay_Ng>
In vitro antimicrobial activity against Neisseria gonorrhoeae L997

> <ChEMBL_Data_Neisseria_g: PUBMED_ID>
9083486

> <ChEMBL_Data_Neisseria_g: YEAR>
1997

> <ChEMBL_Data_Neisseria_g: JOURNAL>
J. Med. Chem.

> <ChEMBL_Data_Neisseria_g: VOLUME>
40

> <ChEMBL_Data_Neisseria_g: FIRST_PAGE>
967

> <ChEMBL_Data_Neisseria_g: MIC_vs_Neisseria_microg_per_mL>
0.06

> <ALogP>
0.973

> <Active>
1

> <Molecular_Weight>
562.438

$$$$

Generated by Molecular Materials Informatics

 22 24  0  0  0  0  0  0  0  0999 V2000
   -5.7805   -4.6499    0.0000 C   0  0  0  0  0  0  0  0  0  0  0  0
   -4.4815   -3.8999    0.0000 C   0  0  0  0  0  0  0  0  0  0  0  0
   -4.4815   -2.4000    0.0000 C   0  0  0  0  0  0  0  0  0  0  0  0
   -3.1824   -1.6500    0.0000 C   0  0  0  0  0  0  0  0  0  0  0  0
   -1.8836   -2.4000    0.0000 C   0  0  0  0  0  0  0  0  0  0  0  0
   -1.8836   -3.8999    0.0000 C   0  0  0  0  0  0  0  0  0  0  0  0
   -3.1824   -4.6499    0.0000 C   0  0  0  0  0  0  0  0  0  0  0  0
   -0.5845   -1.6500    0.0000 S   0  0  0  0  0  0  0  0  0  0  0  0
    0.1655   -2.9491    0.0000 O   0  0  0  0  0  0  0  0  0  0  0  0
   -1.3345   -0.3509    0.0000 O   0  0  0  0  0  0  0  0  0  0  0  0
    0.7145   -0.9000    0.0000 N   0  0  0  0  0  0  0  0  0  0  0  0
    0.7145    0.5999    0.0000 N   0  0  0  0  0  0  0  0  0  0  0  0
    2.0134    1.3499    0.0000 C   0  0  0  0  0  0  0  0  0  0  0  0
    3.3125    0.5999    0.0000 C   0  0  0  0  0  0  0  0  0  0  0  0
    4.6115    1.3499    0.0000 C   0  0  0  0  0  0  0  0  0  0  0  0
    5.9106    0.5999    0.0000 C   0  0  0  0  0  0  0  0  0  0  0  0
    7.2094    1.3499    0.0000 Br  0  0  0  0  0  0  0  0  0  0  0  0
    5.9106   -0.9000    0.0000 C   0  0  0  0  0  0  0  0  0  0  0  0
    4.6115   -1.6500    0.0000 C   0  0  0  0  0  0  0  0  0  0  0  0
    3.3125   -0.9000    0.0000 C   0  0  0  0  0  0  0  0  0  0  0  0
    2.0134   -1.6500    0.0000 B   0  0  0  0  0  0  0  0  0  0  0  0
    2.0134   -3.1500    0.0000 O   0  0  0  0  0  0  0  0  0  0  0  0
  1  2  1  0  0  0  0
  2  3  2  0  0  0  0
  3  4  1  0  0  0  0
  4  5  2  0  0  0  0
  5  6  1  0  0  0  0
  6  7  2  0  0  0  0
  2  7  1  0  0  0  0
  5  8  1  0  0  0  0
  8  9  2  0  0  0  0
  8 10  2  0  0  0  0
  8 11  1  0  0  0  0
 11 12  1  0  0  0  0
 12 13  2  0  0  0  0
 13 14  1  0  0  0  0
 14 15  2  0  0  0  0
 15 16  1  0  0  0  0
 16 17  1  0  0  0  0
 16 18  2  0  0  0  0
 18 19  1  0  0  0  0
 19 20  2  0  0  0  0
 14 20  1  0  0  0  0
 20 21  1  0  0  0  0
 11 21  1  0  0  0  0
 21 22  1  0  0  0  0
M  END
> <Molecule Name>
CHEMBL173015

> <IUPAC>
6-bromo-2-(4-methylbenzenesulfonyl)-1,2-dihydro-2,3,1-benzodiazaborinin-1-ol

> <ChEMBL_Data_Neisseria_g: Qualifier_for_MIC_Ng>
=

> <ChEMBL_Data_Neisseria_g: ASSAY_CHEMBLID>
CHEMBL858169

> <ChEMBL_Data_Neisseria_g: DESCRIPTION_of_Assay_Ng>
Minimum inhibitory concentration of compound against Neisseria gonorrhoeae W2

> <ChEMBL_Data_Neisseria_g: PUBMED_ID>
6379179

> <ChEMBL_Data_Neisseria_g: YEAR>
1984

> <ChEMBL_Data_Neisseria_g: JOURNAL>
J. Med. Chem.

> <ChEMBL_Data_Neisseria_g: VOLUME>
27

> <ChEMBL_Data_Neisseria_g: FIRST_PAGE>
947

> <ChEMBL_Data_Neisseria_g: MIC_vs_Neisseria_microg_per_mL>
2

> <ALogP>
4.138

> <Active>
1

> <Molecular_Weight>
379.037

$$$$

Generated by Molecular Materials Informatics

 22 24  0  0  0  0  0  0  0  0999 V2000
   -5.7805   -4.6499    0.0000 C   0  0  0  0  0  0  0  0  0  0  0  0
   -4.4815   -3.8999    0.0000 C   0  0  0  0  0  0  0  0  0  0  0  0
   -4.4815   -2.4000    0.0000 C   0  0  0  0  0  0  0  0  0  0  0  0
   -3.1824   -1.6500    0.0000 C   0  0  0  0  0  0  0  0  0  0  0  0
   -1.8836   -2.4000    0.0000 C   0  0  0  0  0  0  0  0  0  0  0  0
   -1.8836   -3.8999    0.0000 C   0  0  0  0  0  0  0  0  0  0  0  0
   -3.1824   -4.6499    0.0000 C   0  0  0  0  0  0  0  0  0  0  0  0
   -0.5845   -1.6500    0.0000 S   0  0  0  0  0  0  0  0  0  0  0  0
    0.1655   -2.9491    0.0000 O   0  0  0  0  0  0  0  0  0  0  0  0
   -1.3345   -0.3509    0.0000 O   0  0  0  0  0  0  0  0  0  0  0  0
    0.7145   -0.9000    0.0000 N   0  0  0  0  0  0  0  0  0  0  0  0
    0.7145    0.5999    0.0000 N   0  0  0  0  0  0  0  0  0  0  0  0
    2.0134    1.3499    0.0000 C   0  0  0  0  0  0  0  0  0  0  0  0
    3.3125    0.5999    0.0000 C   0  0  0  0  0  0  0  0  0  0  0  0
    4.6115    1.3499    0.0000 C   0  0  0  0  0  0  0  0  0  0  0  0
    5.9106    0.5999    0.0000 C   0  0  0  0  0  0  0  0  0  0  0  0
    7.2094    1.3499    0.0000 F   0  0  0  0  0  0  0  0  0  0  0  0
    5.9106   -0.9000    0.0000 C   0  0  0  0  0  0  0  0  0  0  0  0
    4.6115   -1.6500    0.0000 C   0  0  0  0  0  0  0  0  0  0  0  0
    3.3125   -0.9000    0.0000 C   0  0  0  0  0  0  0  0  0  0  0  0
    2.0134   -1.6500    0.0000 B   0  0  0  0  0  0  0  0  0  0  0  0
    2.0134   -3.1500    0.0000 O   0  0  0  0  0  0  0  0  0  0  0  0
  1  2  1  0  0  0  0
  2  3  2  0  0  0  0
  3  4  1  0  0  0  0
  4  5  2  0  0  0  0
  5  6  1  0  0  0  0
  6  7  2  0  0  0  0
  2  7  1  0  0  0  0
  5  8  1  0  0  0  0
  8  9  2  0  0  0  0
  8 10  2  0  0  0  0
  8 11  1  0  0  0  0
 11 12  1  0  0  0  0
 12 13  2  0  0  0  0
 13 14  1  0  0  0  0
 14 15  2  0  0  0  0
 15 16  1  0  0  0  0
 16 17  1  0  0  0  0
 16 18  2  0  0  0  0
 18 19  1  0  0  0  0
 19 20  2  0  0  0  0
 14 20  1  0  0  0  0
 20 21  1  0  0  0  0
 11 21  1  0  0  0  0
 21 22  1  0  0  0  0
M  END
> <Molecule Name>
CHEMBL172962

> <IUPAC>
6-fluoro-2-(4-methylbenzenesulfonyl)-1,2-dihydro-2,3,1-benzodiazaborinin-1-ol

> <Collections>
TrainingSet_Kleb_p_ALPerryman_JSF

> <ChEMBL_Data_Neisseria_g: Qualifier_for_MIC_Ng>
=

> <ChEMBL_Data_Neisseria_g: ASSAY_CHEMBLID>
CHEMBL858169

> <ChEMBL_Data_Neisseria_g: DESCRIPTION_of_Assay_Ng>
Minimum inhibitory concentration of compound against Neisseria gonorrhoeae W2

> <ChEMBL_Data_Neisseria_g: PUBMED_ID>
6379179

> <ChEMBL_Data_Neisseria_g: YEAR>
1984

> <ChEMBL_Data_Neisseria_g: JOURNAL>
J. Med. Chem.

> <ChEMBL_Data_Neisseria_g: VOLUME>
27

> <ChEMBL_Data_Neisseria_g: FIRST_PAGE>
947

> <ChEMBL_Data_Neisseria_g: MIC_vs_Neisseria_microg_per_mL>
8

> <ALogP>
3.595

> <Active>
1

> <Molecular_Weight>
318.131

$$$$

Generated by Molecular Materials Informatics

 21 23  0  0  0  0  0  0  0  0999 V2000
   -2.7818   -1.3729    0.0000 C   0  0  0  0  0  0  0  0  0  0  0  0
   -1.2818   -1.3729    0.0000 C   0  0  0  0  0  0  0  0  0  0  0  0
   -0.4001   -0.1594    0.0000 C   0  0  0  0  0  0  0  0  0  0  0  0
    1.0264   -0.6229    0.0000 C   0  0  0  0  0  0  0  0  0  0  0  0
    2.3255    0.1271    0.0000 B   0  0  0  0  0  0  0  0  0  0  0  0
    2.3255    1.6271    0.0000 O   0  0  0  0  0  0  0  0  0  0  0  0
    3.6246   -0.6229    0.0000 N   0  0  0  0  0  0  0  0  0  0  0  0
    3.6246   -2.1229    0.0000 N   0  0  0  0  0  0  0  0  0  0  0  0
    2.3255   -2.8729    0.0000 C   0  0  0  0  0  0  0  0  0  0  0  0
    1.0264   -2.1229    0.0000 C   0  0  0  0  0  0  0  0  0  0  0  0
   -0.4001   -2.5865    0.0000 S   0  0  0  0  0  0  0  0  0  0  0  0
    4.9237    0.1271    0.0000 S   0  0  0  0  0  0  0  0  0  0  0  0
    5.6737   -1.1720    0.0000 O   0  0  0  0  0  0  0  0  0  0  0  0
    4.1737    1.4260    0.0000 O   0  0  0  0  0  0  0  0  0  0  0  0
    6.2226    0.8771    0.0000 C   0  0  0  0  0  0  0  0  0  0  0  0
    6.2226    2.3771    0.0000 C   0  0  0  0  0  0  0  0  0  0  0  0
    7.5217    3.1271    0.0000 C   0  0  0  0  0  0  0  0  0  0  0  0
    8.8208    2.3771    0.0000 C   0  0  0  0  0  0  0  0  0  0  0  0
    8.8208    0.8771    0.0000 C   0  0  0  0  0  0  0  0  0  0  0  0
    7.5217    0.1271    0.0000 C   0  0  0  0  0  0  0  0  0  0  0  0
    7.5217   -1.3729    0.0000 C   0  0  0  0  0  0  0  0  0  0  0  0
  1  2  1  0  0  0  0
  2  3  2  0  0  0  0
  3  4  1  0  0  0  0
  4  5  1  0  0  0  0
  5  6  1  0  0  0  0
  5  7  1  0  0  0  0
  7  8  1  0  0  0  0
  8  9  2  0  0  0  0
  9 10  1  0  0  0  0
  4 10  2  0  0  0  0
 10 11  1  0  0  0  0
  2 11  1  0  0  0  0
  7 12  1  0  0  0  0
 12 13  2  0  0  0  0
 12 14  2  0  0  0  0
 12 15  1  0  0  0  0
 15 16  2  0  0  0  0
 16 17  1  0  0  0  0
 17 18  2  0  0  0  0
 18 19  1  0  0  0  0
 19 20  2  0  0  0  0
 15 20  1  0  0  0  0
 20 21  1  0  0  0  0
M  END
> <Molecule Name>
CHEMBL172847

> <IUPAC>
6-methyl-2-(2-methylbenzenesulfonyl)-1H,2H-thieno[3,2-d][1,2,3]diazaborinin-1-ol

> <Collections>
TrainingSet_Kleb_p_ALPerryman_JSF

> <ChEMBL_Data_Neisseria_g: Qualifier_for_MIC_Ng>
=

> <ChEMBL_Data_Neisseria_g: ASSAY_CHEMBLID>
CHEMBL753615

> <ChEMBL_Data_Neisseria_g: DESCRIPTION_of_Assay_Ng>
Minimum inhibitory concentration of compound against Neisseria gonorrhoeae AS 7720

> <ChEMBL_Data_Neisseria_g: PUBMED_ID>
6379179

> <ChEMBL_Data_Neisseria_g: YEAR>
1984

> <ChEMBL_Data_Neisseria_g: JOURNAL>
J. Med. Chem.

> <ChEMBL_Data_Neisseria_g: VOLUME>
27

> <ChEMBL_Data_Neisseria_g: FIRST_PAGE>
947

> <ChEMBL_Data_Neisseria_g: MIC_vs_Neisseria_microg_per_mL>
0.5

> <ALogP>
3.489

> <Active>
1

> <Molecular_Weight>
320.195

$$$$

Generated by Molecular Materials Informatics

 14 15  0  0  0  0  0  0  0  0999 V2000
    6.4697    3.4354    0.0000 C   0  0  0  0  0  0  0  0  0  0  0  0
    5.1708    2.6854    0.0000 S   0  0  0  0  0  0  0  0  0  0  0  0
    4.4208    3.9845    0.0000 O   0  0  0  0  0  0  0  0  0  0  0  0
    5.9208    1.3865    0.0000 O   0  0  0  0  0  0  0  0  0  0  0  0
    3.8717    1.9354    0.0000 N   0  0  0  0  0  0  0  0  0  0  0  0
    3.8717    0.4354    0.0000 N   0  0  0  0  0  0  0  0  0  0  0  0
    2.5726   -0.3146    0.0000 C   0  0  0  0  0  0  0  0  0  0  0  0
    1.2735    0.4354    0.0000 C   0  0  0  0  0  0  0  0  0  0  0  0
   -0.1530   -0.0281    0.0000 S   0  0  0  0  0  0  0  0  0  0  0  0
   -1.0347    1.1854    0.0000 C   0  0  0  0  0  0  0  0  0  0  0  0
   -0.1530    2.3990    0.0000 C   0  0  0  0  0  0  0  0  0  0  0  0
    1.2735    1.9354    0.0000 C   0  0  0  0  0  0  0  0  0  0  0  0
    2.5726    2.6854    0.0000 B   0  0  0  0  0  0  0  0  0  0  0  0
    2.5726    4.1854    0.0000 O   0  0  0  0  0  0  0  0  0  0  0  0
  1  2  1  0  0  0  0
  2  3  2  0  0  0  0
  2  4  2  0  0  0  0
  2  5  1  0  0  0  0
  5  6  1  0  0  0  0
  6  7  2  0  0  0  0
  7  8  1  0  0  0  0
  8  9  1  0  0  0  0
  9 10  1  0  0  0  0
 10 11  2  0  0  0  0
 11 12  1  0  0  0  0
  8 12  2  0  0  0  0
 12 13  1  0  0  0  0
  5 13  1  0  0  0  0
 13 14  1  0  0  0  0
M  END
> <Molecule Name>
CHEMBL172833

> <IUPAC>
2-methanesulfonyl-1H,2H-thieno[3,2-d][1,2,3]diazaborinin-1-ol

> <Collections>
TrainingSet_Kleb_p_ALPerryman_JSF

> <ChEMBL_Data_Neisseria_g: Qualifier_for_MIC_Ng>
>

> <ChEMBL_Data_Neisseria_g: ASSAY_CHEMBLID>
CHEMBL753615

> <ChEMBL_Data_Neisseria_g: DESCRIPTION_of_Assay_Ng>
Minimum inhibitory concentration of compound against Neisseria gonorrhoeae AS 7720

> <ChEMBL_Data_Neisseria_g: PUBMED_ID>
6379179

> <ChEMBL_Data_Neisseria_g: YEAR>
1984

> <ChEMBL_Data_Neisseria_g: JOURNAL>
J. Med. Chem.

> <ChEMBL_Data_Neisseria_g: VOLUME>
27

> <ChEMBL_Data_Neisseria_g: FIRST_PAGE>
947

> <ChEMBL_Data_Neisseria_g: MIC_vs_Neisseria_microg_per_mL>
8

> <ALogP>
1.28

> <Active>
0

> <Molecular_Weight>
230.072

$$$$

Generated by Molecular Materials Informatics

 21 23  0  0  0  0  0  0  0  0999 V2000
    9.8274    5.3479    0.0000 C   0  0  0  0  0  0  0  0  0  0  0  0
    8.5285    4.5979    0.0000 C   0  0  0  0  0  0  0  0  0  0  0  0
    8.5285    3.0979    0.0000 C   0  0  0  0  0  0  0  0  0  0  0  0
    7.2294    2.3479    0.0000 C   0  0  0  0  0  0  0  0  0  0  0  0
    5.9303    3.0979    0.0000 C   0  0  0  0  0  0  0  0  0  0  0  0
    5.9303    4.5979    0.0000 C   0  0  0  0  0  0  0  0  0  0  0  0
    7.2294    5.3479    0.0000 C   0  0  0  0  0  0  0  0  0  0  0  0
    4.6314    2.3479    0.0000 S   0  0  0  0  0  0  0  0  0  0  0  0
    3.8814    3.6470    0.0000 O   0  0  0  0  0  0  0  0  0  0  0  0
    5.3814    1.0490    0.0000 O   0  0  0  0  0  0  0  0  0  0  0  0
    3.3323    1.5979    0.0000 N   0  0  0  0  0  0  0  0  0  0  0  0
    3.3323    0.0979    0.0000 N   0  0  0  0  0  0  0  0  0  0  0  0
    2.0332   -0.6521    0.0000 C   0  0  0  0  0  0  0  0  0  0  0  0
    0.7342    0.0979    0.0000 C   0  0  0  0  0  0  0  0  0  0  0  0
   -0.6924   -0.3656    0.0000 O   0  0  0  0  0  0  0  0  0  0  0  0
   -1.5740    0.8479    0.0000 C   0  0  0  0  0  0  0  0  0  0  0  0
   -3.0740    0.8479    0.0000 Br  0  0  0  0  0  0  0  0  0  0  0  0
   -0.6924    2.0615    0.0000 C   0  0  0  0  0  0  0  0  0  0  0  0
    0.7342    1.5979    0.0000 C   0  0  0  0  0  0  0  0  0  0  0  0
    2.0332    2.3479    0.0000 B   0  0  0  0  0  0  0  0  0  0  0  0
    2.0332    3.8479    0.0000 O   0  0  0  0  0  0  0  0  0  0  0  0
  1  2  1  0  0  0  0
  2  3  2  0  0  0  0
  3  4  1  0  0  0  0
  4  5  2  0  0  0  0
  5  6  1  0  0  0  0
  6  7  2  0  0  0  0
  2  7  1  0  0  0  0
  5  8  1  0  0  0  0
  8  9  2  0  0  0  0
  8 10  2  0  0  0  0
  8 11  1  0  0  0  0
 11 12  1  0  0  0  0
 12 13  2  0  0  0  0
 13 14  1  0  0  0  0
 14 15  1  0  0  0  0
 15 16  1  0  0  0  0
 16 17  1  0  0  0  0
 16 18  2  0  0  0  0
 18 19  1  0  0  0  0
 14 19  2  0  0  0  0
 19 20  1  0  0  0  0
 11 20  1  0  0  0  0
 20 21  1  0  0  0  0
M  END
> <Molecule Name>
CHEMBL172750

> <IUPAC>
6-bromo-2-(4-methylbenzenesulfonyl)-1H,2H-furo[3,2-d][1,2,3]diazaborinin-1-ol

> <Collections>
TrainingSet_Kleb_p_ALPerryman_JSF

> <ChEMBL_Data_Neisseria_g: Qualifier_for_MIC_Ng>
=

> <ChEMBL_Data_Neisseria_g: ASSAY_CHEMBLID>
CHEMBL858169

> <ChEMBL_Data_Neisseria_g: DESCRIPTION_of_Assay_Ng>
Minimum inhibitory concentration of compound against Neisseria gonorrhoeae W2

> <ChEMBL_Data_Neisseria_g: PUBMED_ID>
6379179

> <ChEMBL_Data_Neisseria_g: YEAR>
1984

> <ChEMBL_Data_Neisseria_g: JOURNAL>
J. Med. Chem.

> <ChEMBL_Data_Neisseria_g: VOLUME>
27

> <ChEMBL_Data_Neisseria_g: FIRST_PAGE>
947

> <ChEMBL_Data_Neisseria_g: MIC_vs_Neisseria_microg_per_mL>
8

> <ALogP>
3.353

> <Active>
1

> <Molecular_Weight>
368.999

$$$$

Generated by Molecular Materials Informatics

 21 23  0  0  0  0  0  0  0  0999 V2000
   -3.0740   -0.0229    0.0000 C   0  0  0  0  0  0  0  0  0  0  0  0
   -1.5740   -0.0229    0.0000 C   0  0  0  0  0  0  0  0  0  0  0  0
   -0.6924    1.1906    0.0000 O   0  0  0  0  0  0  0  0  0  0  0  0
    0.7342    0.7271    0.0000 C   0  0  0  0  0  0  0  0  0  0  0  0
    2.0332    1.4771    0.0000 C   0  0  0  0  0  0  0  0  0  0  0  0
    3.3323    0.7271    0.0000 N   0  0  0  0  0  0  0  0  0  0  0  0
    3.3323   -0.7729    0.0000 N   0  0  0  0  0  0  0  0  0  0  0  0
    2.0332   -1.5229    0.0000 B   0  0  0  0  0  0  0  0  0  0  0  0
    2.0332   -3.0229    0.0000 O   0  0  0  0  0  0  0  0  0  0  0  0
    0.7342   -0.7729    0.0000 C   0  0  0  0  0  0  0  0  0  0  0  0
   -0.6924   -1.2365    0.0000 C   0  0  0  0  0  0  0  0  0  0  0  0
    4.6314   -1.5229    0.0000 S   0  0  0  0  0  0  0  0  0  0  0  0
    3.8814   -2.8220    0.0000 O   0  0  0  0  0  0  0  0  0  0  0  0
    5.3814   -0.2240    0.0000 O   0  0  0  0  0  0  0  0  0  0  0  0
    5.9303   -2.2729    0.0000 C   0  0  0  0  0  0  0  0  0  0  0  0
    7.2294   -1.5229    0.0000 C   0  0  0  0  0  0  0  0  0  0  0  0
    8.5285   -2.2729    0.0000 C   0  0  0  0  0  0  0  0  0  0  0  0
    8.5285   -3.7729    0.0000 C   0  0  0  0  0  0  0  0  0  0  0  0
    9.8274   -4.5229    0.0000 C   0  0  0  0  0  0  0  0  0  0  0  0
    7.2294   -4.5229    0.0000 C   0  0  0  0  0  0  0  0  0  0  0  0
    5.9303   -3.7729    0.0000 C   0  0  0  0  0  0  0  0  0  0  0  0
  1  2  1  0  0  0  0
  2  3  1  0  0  0  0
  3  4  1  0  0  0  0
  4  5  1  0  0  0  0
  5  6  2  0  0  0  0
  6  7  1  0  0  0  0
  7  8  1  0  0  0  0
  8  9  1  0  0  0  0
  8 10  1  0  0  0  0
  4 10  2  0  0  0  0
 10 11  1  0  0  0  0
  2 11  2  0  0  0  0
  7 12  1  0  0  0  0
 12 13  2  0  0  0  0
 12 14  2  0  0  0  0
 12 15  1  0  0  0  0
 15 16  2  0  0  0  0
 16 17  1  0  0  0  0
 17 18  2  0  0  0  0
 18 19  1  0  0  0  0
 18 20  1  0  0  0  0
 20 21  2  0  0  0  0
 15 21  1  0  0  0  0
M  END
> <Molecule Name>
CHEMBL172714

> <CDD Number>
CDD-2165454

> <IUPAC>
6-methyl-2-(4-methylbenzenesulfonyl)-1H,2H-furo[3,2-d][1,2,3]diazaborinin-1-ol

> <Collections>
TrainingSet_Kleb_p_ALPerryman_JSF

> <ChEMBL_Data_Neisseria_g: Qualifier_for_MIC_Ng>
=

> <ChEMBL_Data_Neisseria_g: ASSAY_CHEMBLID>
CHEMBL858169

> <ChEMBL_Data_Neisseria_g: DESCRIPTION_of_Assay_Ng>
Minimum inhibitory concentration of compound against Neisseria gonorrhoeae W2

> <ChEMBL_Data_Neisseria_g: PUBMED_ID>
6379179

> <ChEMBL_Data_Neisseria_g: YEAR>
1984

> <ChEMBL_Data_Neisseria_g: JOURNAL>
J. Med. Chem.

> <ChEMBL_Data_Neisseria_g: VOLUME>
27

> <ChEMBL_Data_Neisseria_g: FIRST_PAGE>
947

> <ChEMBL_Data_Neisseria_g: MIC_vs_Neisseria_microg_per_mL>
8

> <ALogP>
2.931

> <Active>
1

> <Molecular_Weight>
304.129

$$$$

Generated by Molecular Materials Informatics

 21 23  0  0  0  0  0  0  0  0999 V2000
    9.8274    5.3479    0.0000 C   0  0  0  0  0  0  0  0  0  0  0  0
    8.5285    4.5979    0.0000 C   0  0  0  0  0  0  0  0  0  0  0  0
    8.5285    3.0979    0.0000 C   0  0  0  0  0  0  0  0  0  0  0  0
    7.2294    2.3479    0.0000 C   0  0  0  0  0  0  0  0  0  0  0  0
    5.9303    3.0979    0.0000 C   0  0  0  0  0  0  0  0  0  0  0  0
    5.9303    4.5979    0.0000 C   0  0  0  0  0  0  0  0  0  0  0  0
    7.2294    5.3479    0.0000 C   0  0  0  0  0  0  0  0  0  0  0  0
    4.6314    2.3479    0.0000 S   0  0  0  0  0  0  0  0  0  0  0  0
    3.8814    3.6470    0.0000 O   0  0  0  0  0  0  0  0  0  0  0  0
    5.3814    1.0490    0.0000 O   0  0  0  0  0  0  0  0  0  0  0  0
    3.3323    1.5979    0.0000 N   0  0  0  0  0  0  0  0  0  0  0  0
    3.3323    0.0979    0.0000 N   0  0  0  0  0  0  0  0  0  0  0  0
    2.0332   -0.6521    0.0000 C   0  0  0  0  0  0  0  0  0  0  0  0
    0.7342    0.0979    0.0000 C   0  0  0  0  0  0  0  0  0  0  0  0
   -0.6924   -0.3656    0.0000 S   0  0  0  0  0  0  0  0  0  0  0  0
   -1.5740    0.8479    0.0000 C   0  0  0  0  0  0  0  0  0  0  0  0
   -3.0740    0.8479    0.0000 Cl  0  0  0  0  0  0  0  0  0  0  0  0
   -0.6924    2.0615    0.0000 C   0  0  0  0  0  0  0  0  0  0  0  0
    0.7342    1.5979    0.0000 C   0  0  0  0  0  0  0  0  0  0  0  0
    2.0332    2.3479    0.0000 B   0  0  0  0  0  0  0  0  0  0  0  0
    2.0332    3.8479    0.0000 O   0  0  0  0  0  0  0  0  0  0  0  0
  1  2  1  0  0  0  0
  2  3  2  0  0  0  0
  3  4  1  0  0  0  0
  4  5  2  0  0  0  0
  5  6  1  0  0  0  0
  6  7  2  0  0  0  0
  2  7  1  0  0  0  0
  5  8  1  0  0  0  0
  8  9  2  0  0  0  0
  8 10  2  0  0  0  0
  8 11  1  0  0  0  0
 11 12  1  0  0  0  0
 12 13  2  0  0  0  0
 13 14  1  0  0  0  0
 14 15  1  0  0  0  0
 15 16  1  0  0  0  0
 16 17  1  0  0  0  0
 16 18  2  0  0  0  0
 18 19  1  0  0  0  0
 14 19  2  0  0  0  0
 19 20  1  0  0  0  0
 11 20  1  0  0  0  0
 20 21  1  0  0  0  0
M  END
> <Molecule Name>
CHEMBL172696

> <IUPAC>
6-chloro-2-(4-methylbenzenesulfonyl)-1H,2H-thieno[3,2-d][1,2,3]diazaborinin-1-ol

> <Collections>
TrainingSet_Kleb_p_ALPerryman_JSF

> <ChEMBL_Data_Neisseria_g: Qualifier_for_MIC_Ng>
=

> <ChEMBL_Data_Neisseria_g: ASSAY_CHEMBLID>
CHEMBL753615

> <ChEMBL_Data_Neisseria_g: DESCRIPTION_of_Assay_Ng>
Minimum inhibitory concentration of compound against Neisseria gonorrhoeae AS 7720

> <ChEMBL_Data_Neisseria_g: PUBMED_ID>
6379179

> <ChEMBL_Data_Neisseria_g: YEAR>
1984

> <ChEMBL_Data_Neisseria_g: JOURNAL>
J. Med. Chem.

> <ChEMBL_Data_Neisseria_g: VOLUME>
27

> <ChEMBL_Data_Neisseria_g: FIRST_PAGE>
947

> <ChEMBL_Data_Neisseria_g: MIC_vs_Neisseria_microg_per_mL>
1

> <ALogP>
3.802

> <Active>
1

> <Molecular_Weight>
340.613

$$$$

Generated by Molecular Materials Informatics

 24 26  0  0  0  0  0  0  0  0999 V2000
    2.0134   -2.8125    0.0000 O   0  0  0  0  0  0  0  0  0  0  0  0
    2.0134   -1.3125    0.0000 B   0  0  0  0  0  0  0  0  0  0  0  0
    0.7145   -0.5625    0.0000 N   0  0  0  0  0  0  0  0  0  0  0  0
    0.7145    0.9375    0.0000 N   0  0  0  0  0  0  0  0  0  0  0  0
    2.0134    1.6874    0.0000 C   0  0  0  0  0  0  0  0  0  0  0  0
    3.3125    0.9375    0.0000 C   0  0  0  0  0  0  0  0  0  0  0  0
    4.6116    1.6874    0.0000 C   0  0  0  0  0  0  0  0  0  0  0  0
    5.9106    0.9375    0.0000 C   0  0  0  0  0  0  0  0  0  0  0  0
    7.2095    1.6874    0.0000 Br  0  0  0  0  0  0  0  0  0  0  0  0
    5.9106   -0.5625    0.0000 C   0  0  0  0  0  0  0  0  0  0  0  0
    4.6116   -1.3125    0.0000 C   0  0  0  0  0  0  0  0  0  0  0  0
    3.3125   -0.5625    0.0000 C   0  0  0  0  0  0  0  0  0  0  0  0
   -0.5845   -1.3125    0.0000 S   0  0  0  0  0  0  0  0  0  0  0  0
   -1.3345   -0.0134    0.0000 O   0  0  0  0  0  0  0  0  0  0  0  0
    0.1655   -2.6116    0.0000 O   0  0  0  0  0  0  0  0  0  0  0  0
   -1.8836   -2.0625    0.0000 C   0  0  0  0  0  0  0  0  0  0  0  0
   -1.8836   -3.5625    0.0000 C   0  0  0  0  0  0  0  0  0  0  0  0
   -3.1825   -4.3125    0.0000 C   0  0  0  0  0  0  0  0  0  0  0  0
   -3.1825   -5.8124    0.0000 Cl  0  0  0  0  0  0  0  0  0  0  0  0
   -4.4816   -3.5625    0.0000 C   0  0  0  0  0  0  0  0  0  0  0  0
   -5.7806   -4.3125    0.0000 Cl  0  0  0  0  0  0  0  0  0  0  0  0
   -4.4816   -2.0625    0.0000 C   0  0  0  0  0  0  0  0  0  0  0  0
   -3.1825   -1.3125    0.0000 C   0  0  0  0  0  0  0  0  0  0  0  0
   -3.1825    0.1875    0.0000 Cl  0  0  0  0  0  0  0  0  0  0  0  0
  1  2  1  0  0  0  0
  2  3  1  0  0  0  0
  3  4  1  0  0  0  0
  4  5  2  0  0  0  0
  5  6  1  0  0  0  0
  6  7  2  0  0  0  0
  7  8  1  0  0  0  0
  8  9  1  0  0  0  0
  8 10  2  0  0  0  0
 10 11  1  0  0  0  0
 11 12  2  0  0  0  0
  2 12  1  0  0  0  0
  6 12  1  0  0  0  0
  3 13  1  0  0  0  0
 13 14  2  0  0  0  0
 13 15  2  0  0  0  0
 13 16  1  0  0  0  0
 16 17  2  0  0  0  0
 17 18  1  0  0  0  0
 18 19  1  0  0  0  0
 18 20  2  0  0  0  0
 20 21  1  0  0  0  0
 20 22  1  0  0  0  0
 22 23  2  0  0  0  0
 16 23  1  0  0  0  0
 23 24  1  0  0  0  0
M  END
> <Molecule Name>
CHEMBL172607

> <IUPAC>
6-bromo-2-(2,4,5-trichlorobenzenesulfonyl)-1,2-dihydro-2,3,1-benzodiazaborinin-1-ol

> <Collections>
TrainingSet_Kleb_p_ALPerryman_JSF

> <ChEMBL_Data_Neisseria_g: Qualifier_for_MIC_Ng>
=

> <ChEMBL_Data_Neisseria_g: ASSAY_CHEMBLID>
CHEMBL858169

> <ChEMBL_Data_Neisseria_g: DESCRIPTION_of_Assay_Ng>
Minimum inhibitory concentration of compound against Neisseria gonorrhoeae W2

> <ChEMBL_Data_Neisseria_g: PUBMED_ID>
6379179

> <ChEMBL_Data_Neisseria_g: YEAR>
1984

> <ChEMBL_Data_Neisseria_g: JOURNAL>
J. Med. Chem.

> <ChEMBL_Data_Neisseria_g: VOLUME>
27

> <ChEMBL_Data_Neisseria_g: FIRST_PAGE>
947

> <ChEMBL_Data_Neisseria_g: MIC_vs_Neisseria_microg_per_mL>
8

> <ALogP>
5.645

> <Active>
1

> <Molecular_Weight>
468.345

$$$$

Generated by Molecular Materials Informatics

 25 28  0  0  0  0  0  0  0  0999 V2000
   11.5145    0.6595    0.0000 C   0  0  0  0  0  0  0  0  0  0  0  0
   10.0145    0.6595    0.0000 C   0  0  0  0  0  0  0  0  0  0  0  0
    9.2645   -0.6395    0.0000 C   0  0  0  0  0  0  0  0  0  0  0  0
    7.7645   -0.6395    0.0000 C   0  0  0  0  0  0  0  0  0  0  0  0
    7.0145    0.6595    0.0000 C   0  0  0  0  0  0  0  0  0  0  0  0
    7.7645    1.9586    0.0000 C   0  0  0  0  0  0  0  0  0  0  0  0
    9.2645    1.9586    0.0000 C   0  0  0  0  0  0  0  0  0  0  0  0
    5.5145    0.6595    0.0000 S   0  0  0  0  0  0  0  0  0  0  0  0
    5.5145    2.1595    0.0000 O   0  0  0  0  0  0  0  0  0  0  0  0
    5.5145   -0.8404    0.0000 O   0  0  0  0  0  0  0  0  0  0  0  0
    4.0145    0.6595    0.0000 N   0  0  0  0  0  0  0  0  0  0  0  0
    3.2645    1.9586    0.0000 N   0  0  0  0  0  0  0  0  0  0  0  0
    1.7645    1.9586    0.0000 C   0  0  0  0  0  0  0  0  0  0  0  0
    1.0145    0.6595    0.0000 C   0  0  0  0  0  0  0  0  0  0  0  0
    1.7645   -0.6395    0.0000 C   0  0  0  0  0  0  0  0  0  0  0  0
    1.0145   -1.9385    0.0000 C   0  0  0  0  0  0  0  0  0  0  0  0
   -0.4855   -1.9385    0.0000 C   0  0  0  0  0  0  0  0  0  0  0  0
   -1.2355   -0.6395    0.0000 C   0  0  0  0  0  0  0  0  0  0  0  0
   -2.7355   -0.6395    0.0000 C   0  0  0  0  0  0  0  0  0  0  0  0
   -3.4855    0.6595    0.0000 C   0  0  0  0  0  0  0  0  0  0  0  0
   -2.7355    1.9586    0.0000 C   0  0  0  0  0  0  0  0  0  0  0  0
   -1.2355    1.9586    0.0000 C   0  0  0  0  0  0  0  0  0  0  0  0
   -0.4855    0.6595    0.0000 C   0  0  0  0  0  0  0  0  0  0  0  0
    3.2645   -0.6395    0.0000 B   0  0  0  0  0  0  0  0  0  0  0  0
    4.0145   -1.9385    0.0000 O   0  0  0  0  0  0  0  0  0  0  0  0
  1  2  1  0  0  0  0
  2  3  2  0  0  0  0
  3  4  1  0  0  0  0
  4  5  2  0  0  0  0
  5  6  1  0  0  0  0
  6  7  2  0  0  0  0
  2  7  1  0  0  0  0
  5  8  1  0  0  0  0
  8  9  2  0  0  0  0
  8 10  2  0  0  0  0
  8 11  1  0  0  0  0
 11 12  1  0  0  0  0
 12 13  2  0  0  0  0
 13 14  1  0  0  0  0
 14 15  1  0  0  0  0
 15 16  2  0  0  0  0
 16 17  1  0  0  0  0
 17 18  2  0  0  0  0
 18 19  1  0  0  0  0
 19 20  2  0  0  0  0
 20 21  1  0  0  0  0
 21 22  2  0  0  0  0
 22 23  1  0  0  0  0
 14 23  2  0  0  0  0
 18 23  1  0  0  0  0
 15 24  1  0  0  0  0
 11 24  1  0  0  0  0
 24 25  1  0  0  0  0
M  END
> <Molecule Name>
CHEMBL172555

> <IUPAC>
3-(4-methylbenzenesulfonyl)-3H,4H-naphtho[2,1-d][1,2,3]diazaborinin-4-ol

> <Collections>
TrainingSet_Kleb_p_ALPerryman_JSF

> <ChEMBL_Data_Neisseria_g: Qualifier_for_MIC_Ng>
=

> <ChEMBL_Data_Neisseria_g: ASSAY_CHEMBLID>
CHEMBL858169

> <ChEMBL_Data_Neisseria_g: DESCRIPTION_of_Assay_Ng>
Minimum inhibitory concentration of compound against Neisseria gonorrhoeae W2

> <ChEMBL_Data_Neisseria_g: PUBMED_ID>
6379179

> <ChEMBL_Data_Neisseria_g: YEAR>
1984

> <ChEMBL_Data_Neisseria_g: JOURNAL>
J. Med. Chem.

> <ChEMBL_Data_Neisseria_g: VOLUME>
27

> <ChEMBL_Data_Neisseria_g: FIRST_PAGE>
947

> <ChEMBL_Data_Neisseria_g: MIC_vs_Neisseria_microg_per_mL>
8

> <ALogP>
4.298

> <Active>
1

> <Molecular_Weight>
350.199

$$$$

Generated by Molecular Materials Informatics

 20 22  0  0  0  0  0  0  0  0999 V2000
    2.9666    2.7375    0.0000 O   0  0  0  0  0  0  0  0  0  0  0  0
    2.9666    1.2375    0.0000 B   0  0  0  0  0  0  0  0  0  0  0  0
    4.2657    0.4875    0.0000 N   0  0  0  0  0  0  0  0  0  0  0  0
    4.2657   -1.0125    0.0000 N   0  0  0  0  0  0  0  0  0  0  0  0
    2.9666   -1.7625    0.0000 C   0  0  0  0  0  0  0  0  0  0  0  0
    1.6677   -1.0125    0.0000 C   0  0  0  0  0  0  0  0  0  0  0  0
    0.2410   -1.4759    0.0000 S   0  0  0  0  0  0  0  0  0  0  0  0
   -0.6406   -0.2625    0.0000 C   0  0  0  0  0  0  0  0  0  0  0  0
   -2.1406   -0.2625    0.0000 Br  0  0  0  0  0  0  0  0  0  0  0  0
    0.2410    0.9510    0.0000 C   0  0  0  0  0  0  0  0  0  0  0  0
    1.6677    0.4875    0.0000 C   0  0  0  0  0  0  0  0  0  0  0  0
    5.5648    1.2375    0.0000 S   0  0  0  0  0  0  0  0  0  0  0  0
    6.3147   -0.0616    0.0000 O   0  0  0  0  0  0  0  0  0  0  0  0
    4.8148    2.5366    0.0000 O   0  0  0  0  0  0  0  0  0  0  0  0
    6.8636    1.9875    0.0000 C   0  0  0  0  0  0  0  0  0  0  0  0
    6.8636    3.4875    0.0000 C   0  0  0  0  0  0  0  0  0  0  0  0
    8.1627    4.2375    0.0000 C   0  0  0  0  0  0  0  0  0  0  0  0
    9.4618    3.4875    0.0000 C   0  0  0  0  0  0  0  0  0  0  0  0
    9.4618    1.9875    0.0000 C   0  0  0  0  0  0  0  0  0  0  0  0
    8.1627    1.2375    0.0000 C   0  0  0  0  0  0  0  0  0  0  0  0
  1  2  1  0  0  0  0
  2  3  1  0  0  0  0
  3  4  1  0  0  0  0
  4  5  2  0  0  0  0
  5  6  1  0  0  0  0
  6  7  1  0  0  0  0
  7  8  1  0  0  0  0
  8  9  1  0  0  0  0
  8 10  2  0  0  0  0
 10 11  1  0  0  0  0
  2 11  1  0  0  0  0
  6 11  2  0  0  0  0
  3 12  1  0  0  0  0
 12 13  2  0  0  0  0
 12 14  2  0  0  0  0
 12 15  1  0  0  0  0
 15 16  2  0  0  0  0
 16 17  1  0  0  0  0
 17 18  2  0  0  0  0
 18 19  1  0  0  0  0
 19 20  2  0  0  0  0
 15 20  1  0  0  0  0
M  END
> <Molecule Name>
CHEMBL172501

> <IUPAC>
2-(benzenesulfonyl)-6-bromo-1H,2H-thieno[3,2-d][1,2,3]diazaborinin-1-ol

> <Collections>
TrainingSet_Kleb_p_ALPerryman_JSF

> <ChEMBL_Data_Neisseria_g: Qualifier_for_MIC_Ng>
=

> <ChEMBL_Data_Neisseria_g: ASSAY_CHEMBLID>
CHEMBL858169

> <ChEMBL_Data_Neisseria_g: DESCRIPTION_of_Assay_Ng>
Minimum inhibitory concentration of compound against Neisseria gonorrhoeae W2

> <ChEMBL_Data_Neisseria_g: PUBMED_ID>
6379179

> <ChEMBL_Data_Neisseria_g: YEAR>
1984

> <ChEMBL_Data_Neisseria_g: JOURNAL>
J. Med. Chem.

> <ChEMBL_Data_Neisseria_g: VOLUME>
27

> <ChEMBL_Data_Neisseria_g: FIRST_PAGE>
947

> <ChEMBL_Data_Neisseria_g: MIC_vs_Neisseria_microg_per_mL>
2

> <ALogP>
3.425

> <Active>
1

> <Molecular_Weight>
371.038

$$$$

Generated by Molecular Materials Informatics

 22 24  0  0  0  0  0  0  0  0999 V2000
   -5.7805   -4.6499    0.0000 C   0  0  0  0  0  0  0  0  0  0  0  0
   -4.4815   -3.8999    0.0000 C   0  0  0  0  0  0  0  0  0  0  0  0
   -4.4815   -2.4000    0.0000 C   0  0  0  0  0  0  0  0  0  0  0  0
   -3.1824   -1.6500    0.0000 C   0  0  0  0  0  0  0  0  0  0  0  0
   -1.8836   -2.4000    0.0000 C   0  0  0  0  0  0  0  0  0  0  0  0
   -1.8836   -3.8999    0.0000 C   0  0  0  0  0  0  0  0  0  0  0  0
   -3.1824   -4.6499    0.0000 C   0  0  0  0  0  0  0  0  0  0  0  0
   -0.5845   -1.6500    0.0000 S   0  0  0  0  0  0  0  0  0  0  0  0
    0.1655   -2.9491    0.0000 O   0  0  0  0  0  0  0  0  0  0  0  0
   -1.3345   -0.3509    0.0000 O   0  0  0  0  0  0  0  0  0  0  0  0
    0.7145   -0.9000    0.0000 N   0  0  0  0  0  0  0  0  0  0  0  0
    0.7145    0.5999    0.0000 N   0  0  0  0  0  0  0  0  0  0  0  0
    2.0134    1.3499    0.0000 C   0  0  0  0  0  0  0  0  0  0  0  0
    3.3125    0.5999    0.0000 C   0  0  0  0  0  0  0  0  0  0  0  0
    4.6115    1.3499    0.0000 C   0  0  0  0  0  0  0  0  0  0  0  0
    5.9106    0.5999    0.0000 C   0  0  0  0  0  0  0  0  0  0  0  0
    5.9106   -0.9000    0.0000 C   0  0  0  0  0  0  0  0  0  0  0  0
    7.2094   -1.6500    0.0000 Br  0  0  0  0  0  0  0  0  0  0  0  0
    4.6115   -1.6500    0.0000 C   0  0  0  0  0  0  0  0  0  0  0  0
    3.3125   -0.9000    0.0000 C   0  0  0  0  0  0  0  0  0  0  0  0
    2.0134   -1.6500    0.0000 B   0  0  0  0  0  0  0  0  0  0  0  0
    2.0134   -3.1500    0.0000 O   0  0  0  0  0  0  0  0  0  0  0  0
  1  2  1  0  0  0  0
  2  3  2  0  0  0  0
  3  4  1  0  0  0  0
  4  5  2  0  0  0  0
  5  6  1  0  0  0  0
  6  7  2  0  0  0  0
  2  7  1  0  0  0  0
  5  8  1  0  0  0  0
  8  9  2  0  0  0  0
  8 10  2  0  0  0  0
  8 11  1  0  0  0  0
 11 12  1  0  0  0  0
 12 13  2  0  0  0  0
 13 14  1  0  0  0  0
 14 15  2  0  0  0  0
 15 16  1  0  0  0  0
 16 17  2  0  0  0  0
 17 18  1  0  0  0  0
 17 19  1  0  0  0  0
 19 20  2  0  0  0  0
 14 20  1  0  0  0  0
 20 21  1  0  0  0  0
 11 21  1  0  0  0  0
 21 22  1  0  0  0  0
M  END
> <Molecule Name>
CHEMBL172444

> <IUPAC>
7-bromo-2-(4-methylbenzenesulfonyl)-1,2-dihydro-2,3,1-benzodiazaborinin-1-ol

> <Collections>
TrainingSet_Kleb_p_ALPerryman_JSF

> <ChEMBL_Data_Neisseria_g: Qualifier_for_MIC_Ng>
=

> <ChEMBL_Data_Neisseria_g: ASSAY_CHEMBLID>
CHEMBL858169

> <ChEMBL_Data_Neisseria_g: DESCRIPTION_of_Assay_Ng>
Minimum inhibitory concentration of compound against Neisseria gonorrhoeae W2

> <ChEMBL_Data_Neisseria_g: PUBMED_ID>
6379179

> <ChEMBL_Data_Neisseria_g: YEAR>
1984

> <ChEMBL_Data_Neisseria_g: JOURNAL>
J. Med. Chem.

> <ChEMBL_Data_Neisseria_g: VOLUME>
27

> <ChEMBL_Data_Neisseria_g: FIRST_PAGE>
947

> <ChEMBL_Data_Neisseria_g: MIC_vs_Neisseria_microg_per_mL>
8

> <ALogP>
4.138

> <Active>
1

> <Molecular_Weight>
379.037

$$$$

Generated by Molecular Materials Informatics

 23 25  0  0  0  0  0  0  0  0999 V2000
    2.6743    2.4000    0.0000 O   0  0  0  0  0  0  0  0  0  0  0  0
    2.6743    0.9000    0.0000 B   0  0  0  0  0  0  0  0  0  0  0  0
    3.9734    0.1500    0.0000 N   0  0  0  0  0  0  0  0  0  0  0  0
    3.9734   -1.3500    0.0000 N   0  0  0  0  0  0  0  0  0  0  0  0
    2.6743   -2.1000    0.0000 C   0  0  0  0  0  0  0  0  0  0  0  0
    1.3754   -1.3500    0.0000 C   0  0  0  0  0  0  0  0  0  0  0  0
   -0.0513   -1.8135    0.0000 O   0  0  0  0  0  0  0  0  0  0  0  0
   -0.9330   -0.6000    0.0000 C   0  0  0  0  0  0  0  0  0  0  0  0
   -2.4330   -0.6000    0.0000 Br  0  0  0  0  0  0  0  0  0  0  0  0
   -0.0513    0.6135    0.0000 C   0  0  0  0  0  0  0  0  0  0  0  0
    1.3754    0.1500    0.0000 C   0  0  0  0  0  0  0  0  0  0  0  0
    5.2725    0.9000    0.0000 S   0  0  0  0  0  0  0  0  0  0  0  0
    6.0225   -0.3991    0.0000 O   0  0  0  0  0  0  0  0  0  0  0  0
    4.5225    2.1991    0.0000 O   0  0  0  0  0  0  0  0  0  0  0  0
    6.5714    1.6500    0.0000 C   0  0  0  0  0  0  0  0  0  0  0  0
    6.5714    3.1500    0.0000 C   0  0  0  0  0  0  0  0  0  0  0  0
    7.8705    3.9000    0.0000 C   0  0  0  0  0  0  0  0  0  0  0  0
    7.8705    5.4000    0.0000 Cl  0  0  0  0  0  0  0  0  0  0  0  0
    9.1696    3.1500    0.0000 C   0  0  0  0  0  0  0  0  0  0  0  0
   10.4687    3.9000    0.0000 Cl  0  0  0  0  0  0  0  0  0  0  0  0
    9.1696    1.6500    0.0000 C   0  0  0  0  0  0  0  0  0  0  0  0
    7.8705    0.9000    0.0000 C   0  0  0  0  0  0  0  0  0  0  0  0
    7.8705   -0.6000    0.0000 Cl  0  0  0  0  0  0  0  0  0  0  0  0
  1  2  1  0  0  0  0
  2  3  1  0  0  0  0
  3  4  1  0  0  0  0
  4  5  2  0  0  0  0
  5  6  1  0  0  0  0
  6  7  1  0  0  0  0
  7  8  1  0  0  0  0
  8  9  1  0  0  0  0
  8 10  2  0  0  0  0
 10 11  1  0  0  0  0
  2 11  1  0  0  0  0
  6 11  2  0  0  0  0
  3 12  1  0  0  0  0
 12 13  2  0  0  0  0
 12 14  2  0  0  0  0
 12 15  1  0  0  0  0
 15 16  2  0  0  0  0
 16 17  1  0  0  0  0
 17 18  1  0  0  0  0
 17 19  2  0  0  0  0
 19 20  1  0  0  0  0
 19 21  1  0  0  0  0
 21 22  2  0  0  0  0
 15 22  1  0  0  0  0
 22 23  1  0  0  0  0
M  END
> <Molecule Name>
CHEMBL172385

> <IUPAC>
6-bromo-2-(2,4,5-trichlorobenzenesulfonyl)-1H,2H-furo[3,2-d][1,2,3]diazaborinin-1-ol

> <Collections>
TrainingSet_Kleb_p_ALPerryman_JSF

> <ChEMBL_Data_Neisseria_g: Qualifier_for_MIC_Ng>
=

> <ChEMBL_Data_Neisseria_g: ASSAY_CHEMBLID>
CHEMBL858169

> <ChEMBL_Data_Neisseria_g: DESCRIPTION_of_Assay_Ng>
Minimum inhibitory concentration of compound against Neisseria gonorrhoeae W2

> <ChEMBL_Data_Neisseria_g: PUBMED_ID>
6379179

> <ChEMBL_Data_Neisseria_g: YEAR>
1984

> <ChEMBL_Data_Neisseria_g: JOURNAL>
J. Med. Chem.

> <ChEMBL_Data_Neisseria_g: VOLUME>
27

> <ChEMBL_Data_Neisseria_g: FIRST_PAGE>
947

> <ChEMBL_Data_Neisseria_g: MIC_vs_Neisseria_microg_per_mL>
2

> <ALogP>
4.86

> <Active>
1

> <Molecular_Weight>
458.307

$$$$

Generated by Molecular Materials Informatics

 21 23  0  0  0  0  0  0  0  0999 V2000
    1.7211   -3.1500    0.0000 O   0  0  0  0  0  0  0  0  0  0  0  0
    1.7211   -1.6500    0.0000 B   0  0  0  0  0  0  0  0  0  0  0  0
    0.4223   -0.9000    0.0000 N   0  0  0  0  0  0  0  0  0  0  0  0
    0.4223    0.5999    0.0000 N   0  0  0  0  0  0  0  0  0  0  0  0
    1.7211    1.3499    0.0000 C   0  0  0  0  0  0  0  0  0  0  0  0
    3.0202    0.5999    0.0000 C   0  0  0  0  0  0  0  0  0  0  0  0
    4.3192    1.3499    0.0000 C   0  0  0  0  0  0  0  0  0  0  0  0
    5.6183    0.5999    0.0000 C   0  0  0  0  0  0  0  0  0  0  0  0
    5.6183   -0.9000    0.0000 C   0  0  0  0  0  0  0  0  0  0  0  0
    6.9172   -1.6500    0.0000 O   0  0  0  0  0  0  0  0  0  0  0  0
    4.3192   -1.6500    0.0000 C   0  0  0  0  0  0  0  0  0  0  0  0
    3.0202   -0.9000    0.0000 C   0  0  0  0  0  0  0  0  0  0  0  0
   -0.8768   -1.6500    0.0000 S   0  0  0  0  0  0  0  0  0  0  0  0
   -1.6268   -0.3509    0.0000 O   0  0  0  0  0  0  0  0  0  0  0  0
   -0.1268   -2.9491    0.0000 O   0  0  0  0  0  0  0  0  0  0  0  0
   -2.1758   -2.4000    0.0000 C   0  0  0  0  0  0  0  0  0  0  0  0
   -2.1758   -3.8999    0.0000 C   0  0  0  0  0  0  0  0  0  0  0  0
   -3.4747   -4.6499    0.0000 C   0  0  0  0  0  0  0  0  0  0  0  0
   -4.7738   -3.8999    0.0000 C   0  0  0  0  0  0  0  0  0  0  0  0
   -4.7738   -2.4000    0.0000 C   0  0  0  0  0  0  0  0  0  0  0  0
   -3.4747   -1.6500    0.0000 C   0  0  0  0  0  0  0  0  0  0  0  0
  1  2  1  0  0  0  0
  2  3  1  0  0  0  0
  3  4  1  0  0  0  0
  4  5  2  0  0  0  0
  5  6  1  0  0  0  0
  6  7  2  0  0  0  0
  7  8  1  0  0  0  0
  8  9  2  0  0  0  0
  9 10  1  0  0  0  0
  9 11  1  0  0  0  0
 11 12  2  0  0  0  0
  2 12  1  0  0  0  0
  6 12  1  0  0  0  0
  3 13  1  0  0  0  0
 13 14  2  0  0  0  0
 13 15  2  0  0  0  0
 13 16  1  0  0  0  0
 16 17  2  0  0  0  0
 17 18  1  0  0  0  0
 18 19  2  0  0  0  0
 19 20  1  0  0  0  0
 20 21  2  0  0  0  0
 16 21  1  0  0  0  0
M  END
> <Molecule Name>
CHEMBL172203

> <IUPAC>
2-(benzenesulfonyl)-1,2-dihydro-2,3,1-benzodiazaborinine-1,7-diol

> <Collections>
TrainingSet_Kleb_p_ALPerryman_JSF

> <ChEMBL_Data_Neisseria_g: Qualifier_for_MIC_Ng>
>

> <ChEMBL_Data_Neisseria_g: ASSAY_CHEMBLID>
CHEMBL753615

> <ChEMBL_Data_Neisseria_g: DESCRIPTION_of_Assay_Ng>
Minimum inhibitory concentration of compound against Neisseria gonorrhoeae AS 7720

> <ChEMBL_Data_Neisseria_g: PUBMED_ID>
6379179

> <ChEMBL_Data_Neisseria_g: YEAR>
1984

> <ChEMBL_Data_Neisseria_g: JOURNAL>
J. Med. Chem.

> <ChEMBL_Data_Neisseria_g: VOLUME>
27

> <ChEMBL_Data_Neisseria_g: FIRST_PAGE>
947

> <ChEMBL_Data_Neisseria_g: MIC_vs_Neisseria_microg_per_mL>
8

> <ALogP>
2.662

> <Active>
0

> <Molecular_Weight>
302.113

$$$$

Generated by Molecular Materials Informatics

 22 24  0  0  0  0  0  0  0  0999 V2000
    9.8274    5.3479    0.0000 C   0  0  0  0  0  0  0  0  0  0  0  0
    8.5285    4.5979    0.0000 C   0  0  0  0  0  0  0  0  0  0  0  0
    8.5285    3.0979    0.0000 C   0  0  0  0  0  0  0  0  0  0  0  0
    7.2294    2.3479    0.0000 C   0  0  0  0  0  0  0  0  0  0  0  0
    5.9303    3.0979    0.0000 C   0  0  0  0  0  0  0  0  0  0  0  0
    5.9303    4.5979    0.0000 C   0  0  0  0  0  0  0  0  0  0  0  0
    4.6314    5.3479    0.0000 Cl  0  0  0  0  0  0  0  0  0  0  0  0
    7.2294    5.3479    0.0000 C   0  0  0  0  0  0  0  0  0  0  0  0
    4.6314    2.3479    0.0000 S   0  0  0  0  0  0  0  0  0  0  0  0
    3.8814    3.6470    0.0000 O   0  0  0  0  0  0  0  0  0  0  0  0
    5.3814    1.0490    0.0000 O   0  0  0  0  0  0  0  0  0  0  0  0
    3.3323    1.5979    0.0000 N   0  0  0  0  0  0  0  0  0  0  0  0
    3.3323    0.0979    0.0000 C   0  0  0  0  0  0  0  0  0  0  0  0
    2.0332   -0.6521    0.0000 C   0  0  0  0  0  0  0  0  0  0  0  0
    0.7342    0.0979    0.0000 C   0  0  0  0  0  0  0  0  0  0  0  0
   -0.6924   -0.3656    0.0000 C   0  0  0  0  0  0  0  0  0  0  0  0
   -1.5740    0.8479    0.0000 C   0  0  0  0  0  0  0  0  0  0  0  0
   -3.0740    0.8479    0.0000 C   0  0  0  0  0  0  0  0  0  0  0  0
   -0.6924    2.0615    0.0000 S   0  0  0  0  0  0  0  0  0  0  0  0
    0.7342    1.5979    0.0000 C   0  0  0  0  0  0  0  0  0  0  0  0
    2.0332    2.3479    0.0000 B   0  0  0  0  0  0  0  0  0  0  0  0
    2.0332    3.8479    0.0000 O   0  0  0  0  0  0  0  0  0  0  0  0
  1  2  1  0  0  0  0
  2  3  2  0  0  0  0
  3  4  1  0  0  0  0
  4  5  2  0  0  0  0
  5  6  1  0  0  0  0
  6  7  1  0  0  0  0
  6  8  2  0  0  0  0
  2  8  1  0  0  0  0
  5  9  1  0  0  0  0
  9 10  2  0  0  0  0
  9 11  2  0  0  0  0
  9 12  1  0  0  0  0
 12 13  1  0  0  0  0
 13 14  2  0  0  0  0
 14 15  1  0  0  0  0
 15 16  1  0  0  0  0
 16 17  2  0  0  0  0
 17 18  1  0  0  0  0
 17 19  1  0  0  0  0
 19 20  1  0  0  0  0
 15 20  2  0  0  0  0
 20 21  1  0  0  0  0
 12 21  1  0  0  0  0
 21 22  1  0  0  0  0
M  END
> <Molecule Name>
CHEMBL172187

> <IUPAC>
2-(2-chloro-4-methylbenzenesulfonyl)-6-methyl-1H,2H-thieno[2,3-c][1,2]azaborinin-1-ol

> <Collections>
TrainingSet_Kleb_p_ALPerryman_JSF

> <ChEMBL_Data_Neisseria_g: Qualifier_for_MIC_Ng>
=

> <ChEMBL_Data_Neisseria_g: ASSAY_CHEMBLID>
CHEMBL753615

> <ChEMBL_Data_Neisseria_g: DESCRIPTION_of_Assay_Ng>
Minimum inhibitory concentration of compound against Neisseria gonorrhoeae AS 7720

> <ChEMBL_Data_Neisseria_g: PUBMED_ID>
6379179

> <ChEMBL_Data_Neisseria_g: YEAR>
1984

> <ChEMBL_Data_Neisseria_g: JOURNAL>
J. Med. Chem.

> <ChEMBL_Data_Neisseria_g: VOLUME>
27

> <ChEMBL_Data_Neisseria_g: FIRST_PAGE>
947

> <ChEMBL_Data_Neisseria_g: MIC_vs_Neisseria_microg_per_mL>
1

> <ALogP>
3.741

> <Active>
1

> <Molecular_Weight>
353.652

$$$$

Generated by Molecular Materials Informatics

 41 46  0  0  0  0  0  0  0  0999 V2000
   -3.2549   -5.1430    0.0000 C   0  0  0  0  0  0  0  0  0  0  0  0
   -2.1404   -4.1390    0.0000 C   0  0  0  0  0  0  0  0  0  0  0  0
   -0.7136   -4.6021    0.0000 C   0  0  0  0  0  0  0  0  0  0  0  0
    0.4007   -3.5981    0.0000 N   0  0  0  0  0  0  0  0  0  0  0  0
    1.8275   -4.0612    0.0000 C   0  0  0  0  0  0  0  0  0  0  0  0
    2.1398   -5.5283    0.0000 C   0  0  0  0  0  0  0  0  0  0  0  0
    3.5666   -5.9914    0.0000 C   0  0  0  0  0  0  0  0  0  0  0  0
    3.8787   -7.4585    0.0000 O   0  0  0  0  0  0  0  0  0  0  0  0
    4.6809   -4.9874    0.0000 C   0  0  0  0  0  0  0  0  0  0  0  0
    6.1077   -5.4505    0.0000 C   0  0  0  0  0  0  0  0  0  0  0  0
    6.4198   -6.9176    0.0000 O   0  0  0  0  0  0  0  0  0  0  0  0
    7.2220   -4.4465    0.0000 C   0  0  0  0  0  0  0  0  0  0  0  0
    6.9098   -2.9794    0.0000 C   0  0  0  0  0  0  0  0  0  0  0  0
    8.2086   -2.2290    0.0000 O   0  0  0  0  0  0  0  0  0  0  0  0
    9.3237   -3.2323    0.0000 C   0  0  0  0  0  0  0  0  0  0  0  0
    9.7868   -1.8056    0.0000 C   0  0  0  0  0  0  0  0  0  0  0  0
   11.2538   -1.4932    0.0000 C   0  0  0  0  0  0  0  0  0  0  0  0
   11.7169   -0.0665    0.0000 O   0  0  0  0  0  0  0  0  0  0  0  0
   12.2578   -2.6078    0.0000 C   0  0  0  0  0  0  0  0  0  0  0  0
   13.7249   -2.2954    0.0000 C   0  0  0  0  0  0  0  0  0  0  0  0
   14.7289   -3.4098    0.0000 C   0  0  0  0  0  0  0  0  0  0  0  0
   16.1962   -3.0976    0.0000 C   0  0  0  0  0  0  0  0  0  0  0  0
   17.2002   -4.2120    0.0000 C   0  0  0  0  0  0  0  0  0  0  0  0
   16.7371   -5.6387    0.0000 O   0  0  0  0  0  0  0  0  0  0  0  0
   15.2698   -5.9510    0.0000 C   0  0  0  0  0  0  0  0  0  0  0  0
   14.8068   -7.3778    0.0000 O   0  0  0  0  0  0  0  0  0  0  0  0
   14.2658   -4.8365    0.0000 C   0  0  0  0  0  0  0  0  0  0  0  0
   12.7988   -5.1489    0.0000 C   0  0  0  0  0  0  0  0  0  0  0  0
   12.3357   -6.5756    0.0000 O   0  0  0  0  0  0  0  0  0  0  0  0
   11.7948   -4.0345    0.0000 C   0  0  0  0  0  0  0  0  0  0  0  0
   10.3277   -4.3467    0.0000 O   0  0  0  0  0  0  0  0  0  0  0  0
   18.6673   -3.8998    0.0000 C   0  0  0  0  0  0  0  0  0  0  0  0
   19.1304   -2.4730    0.0000 O   0  0  0  0  0  0  0  0  0  0  0  0
   19.6713   -5.0141    0.0000 O   0  0  0  0  0  0  0  0  0  0  0  0
   21.1384   -4.7018    0.0000 C   0  0  0  0  0  0  0  0  0  0  0  0
    8.7138   -4.6029    0.0000 C   0  0  0  0  0  0  0  0  0  0  0  0
    5.4831   -2.5163    0.0000 C   0  0  0  0  0  0  0  0  0  0  0  0
    5.1707   -1.0490    0.0000 O   0  0  0  0  0  0  0  0  0  0  0  0
    4.3686   -3.5203    0.0000 C   0  0  0  0  0  0  0  0  0  0  0  0
    2.9418   -3.0572    0.0000 C   0  0  0  0  0  0  0  0  0  0  0  0
    2.6297   -1.5900    0.0000 O   0  0  0  0  0  0  0  0  0  0  0  0
  1  2  1  0  0  0  0
  2  3  1  0  0  0  0
  3  4  1  0  0  0  0
  4  5  1  0  0  0  0
  5  6  2  0  0  0  0
  6  7  1  0  0  0  0
  7  8  1  0  0  0  0
  7  9  2  0  0  0  0
  9 10  1  0  0  0  0
 10 11  2  0  0  0  0
 10 12  1  0  0  0  0
 12 13  2  0  0  0  0
 13 14  1  0  0  0  0
 14 15  1  0  0  0  0
 15 16  1  0  0  0  0
 16 17  1  0  0  0  0
 17 18  1  0  0  0  0
 17 19  1  0  0  0  0
 19 20  2  0  0  0  0
 20 21  1  0  0  0  0
 21 22  1  0  0  0  0
 22 23  2  0  0  0  0
 23 24  1  0  0  0  0
 24 25  1  0  0  0  0
 25 26  2  0  0  0  0
 25 27  1  0  0  0  0
 21 27  2  0  0  0  0
 27 28  1  0  0  0  0
 28 29  1  0  0  0  0
 28 30  2  0  0  0  0
 19 30  1  0  0  0  0
 30 31  1  0  0  0  0
 15 31  1  0  0  0  0
 23 32  1  0  0  0  0
 32 33  2  0  0  0  0
 32 34  1  0  0  0  0
 34 35  1  0  0  0  0
 15 36  1  0  0  0  0
 12 36  1  0  0  0  0
 13 37  1  0  0  0  0
 37 38  2  0  0  0  0
 37 39  1  0  0  0  0
  9 39  1  0  0  0  0
 39 40  2  0  0  0  0
  5 40  1  0  0  0  0
 40 41  1  0  0  0  0
M  END
> <Molecule Name>
CHEMBL172185

> <IUPAC>
methyl 4',5,8,10'-tetrahydroxy-4,9,9'-trioxo-7-(propylamino)-4,4',9,9'-tetrahydro-3H,3'H-spiro[naphtho[2,3-b]furan-2,2'-pyrano[3,2-g]isochromene]-7'-carboxylate

> <Collections>
Set2_NotListedAsBetaLactamResistant (mostly)

> <ChEMBL_Data_Neisseria_g: NUM_RO5_VIOLATIONS>
2

> <ChEMBL_Data_Neisseria_g: Qualifier_for_MIC_Ng>
=

> <ChEMBL_Data_Neisseria_g: ASSAY_CHEMBLID>
CHEMBL753613

> <ChEMBL_Data_Neisseria_g: DESCRIPTION_of_Assay_Ng>
In vitro antimicrobial activity against Neisseria gonorrhoeae L997

> <ChEMBL_Data_Neisseria_g: PUBMED_ID>
9083486

> <ChEMBL_Data_Neisseria_g: YEAR>
1997

> <ChEMBL_Data_Neisseria_g: JOURNAL>
J. Med. Chem.

> <ChEMBL_Data_Neisseria_g: VOLUME>
40

> <ChEMBL_Data_Neisseria_g: FIRST_PAGE>
967

> <ChEMBL_Data_Neisseria_g: MIC_vs_Neisseria_microg_per_mL>
0.06

> <ALogP>
2.115

> <Active>
1

> <Molecular_Weight>
565.482

$$$$

Generated by Molecular Materials Informatics

 16 17  0  0  0  0  0  0  0  0999 V2000
   -2.0458   -2.6624    0.0000 C   0  0  0  0  0  0  0  0  0  0  0  0
   -0.7468   -1.9125    0.0000 C   0  0  0  0  0  0  0  0  0  0  0  0
   -0.7468   -0.4125    0.0000 C   0  0  0  0  0  0  0  0  0  0  0  0
    0.5521    0.3375    0.0000 C   0  0  0  0  0  0  0  0  0  0  0  0
    1.8511   -0.4125    0.0000 C   0  0  0  0  0  0  0  0  0  0  0  0
    3.1502    0.3375    0.0000 B   0  0  0  0  0  0  0  0  0  0  0  0
    3.1502    1.8374    0.0000 O   0  0  0  0  0  0  0  0  0  0  0  0
    4.4492   -0.4125    0.0000 N   0  0  0  0  0  0  0  0  0  0  0  0
    4.4492   -1.9125    0.0000 N   0  0  0  0  0  0  0  0  0  0  0  0
    3.1502   -2.6624    0.0000 C   0  0  0  0  0  0  0  0  0  0  0  0
    1.8511   -1.9125    0.0000 C   0  0  0  0  0  0  0  0  0  0  0  0
    0.5521   -2.6624    0.0000 C   0  0  0  0  0  0  0  0  0  0  0  0
    5.7481    0.3375    0.0000 S   0  0  0  0  0  0  0  0  0  0  0  0
    7.0471    1.0875    0.0000 O   0  0  0  0  0  0  0  0  0  0  0  0
    6.4981   -0.9616    0.0000 O   0  0  0  0  0  0  0  0  0  0  0  0
    4.9981    1.6365    0.0000 C   0  0  0  0  0  0  0  0  0  0  0  0
  1  2  1  0  0  0  0
  2  3  2  0  0  0  0
  3  4  1  0  0  0  0
  4  5  2  0  0  0  0
  5  6  1  0  0  0  0
  6  7  1  0  0  0  0
  6  8  1  0  0  0  0
  8  9  1  0  0  0  0
  9 10  2  0  0  0  0
 10 11  1  0  0  0  0
  5 11  1  0  0  0  0
 11 12  2  0  0  0  0
  2 12  1  0  0  0  0
  8 13  1  0  0  0  0
 13 14  2  0  0  0  0
 13 15  2  0  0  0  0
 13 16  1  0  0  0  0
M  END
> <Molecule Name>
CHEMBL172122

> <IUPAC>
2-methanesulfonyl-6-methyl-1,2-dihydro-2,3,1-benzodiazaborinin-1-ol

> <Collections>
TrainingSet_Kleb_p_ALPerryman_JSF

> <ChEMBL_Data_Neisseria_g: Qualifier_for_MIC_Ng>
>

> <ChEMBL_Data_Neisseria_g: ASSAY_CHEMBLID>
CHEMBL753615

> <ChEMBL_Data_Neisseria_g: DESCRIPTION_of_Assay_Ng>
Minimum inhibitory concentration of compound against Neisseria gonorrhoeae AS 7720

> <ChEMBL_Data_Neisseria_g: PUBMED_ID>
6379179

> <ChEMBL_Data_Neisseria_g: YEAR>
1984

> <ChEMBL_Data_Neisseria_g: JOURNAL>
J. Med. Chem.

> <ChEMBL_Data_Neisseria_g: VOLUME>
27

> <ChEMBL_Data_Neisseria_g: FIRST_PAGE>
947

> <ChEMBL_Data_Neisseria_g: MIC_vs_Neisseria_microg_per_mL>
8

> <ALogP>
1.813

> <Active>
0

> <Molecular_Weight>
238.071

$$$$

Generated by Molecular Materials Informatics

 21 23  0  0  0  0  0  0  0  0999 V2000
    9.8274    5.3479    0.0000 C   0  0  0  0  0  0  0  0  0  0  0  0
    8.5285    4.5979    0.0000 C   0  0  0  0  0  0  0  0  0  0  0  0
    8.5285    3.0979    0.0000 C   0  0  0  0  0  0  0  0  0  0  0  0
    7.2294    2.3479    0.0000 C   0  0  0  0  0  0  0  0  0  0  0  0
    5.9303    3.0979    0.0000 C   0  0  0  0  0  0  0  0  0  0  0  0
    5.9303    4.5979    0.0000 C   0  0  0  0  0  0  0  0  0  0  0  0
    7.2294    5.3479    0.0000 C   0  0  0  0  0  0  0  0  0  0  0  0
    4.6314    2.3479    0.0000 S   0  0  0  0  0  0  0  0  0  0  0  0
    3.8814    3.6470    0.0000 O   0  0  0  0  0  0  0  0  0  0  0  0
    5.3814    1.0490    0.0000 O   0  0  0  0  0  0  0  0  0  0  0  0
    3.3323    1.5979    0.0000 N   0  0  0  0  0  0  0  0  0  0  0  0
    3.3323    0.0979    0.0000 N   0  0  0  0  0  0  0  0  0  0  0  0
    2.0332   -0.6521    0.0000 C   0  0  0  0  0  0  0  0  0  0  0  0
    0.7342    0.0979    0.0000 C   0  0  0  0  0  0  0  0  0  0  0  0
   -0.6924   -0.3656    0.0000 S   0  0  0  0  0  0  0  0  0  0  0  0
   -1.5740    0.8479    0.0000 C   0  0  0  0  0  0  0  0  0  0  0  0
   -3.0740    0.8479    0.0000 Br  0  0  0  0  0  0  0  0  0  0  0  0
   -0.6924    2.0615    0.0000 C   0  0  0  0  0  0  0  0  0  0  0  0
    0.7342    1.5979    0.0000 C   0  0  0  0  0  0  0  0  0  0  0  0
    2.0332    2.3479    0.0000 B   0  0  0  0  0  0  0  0  0  0  0  0
    2.0332    3.8479    0.0000 O   0  0  0  0  0  0  0  0  0  0  0  0
  1  2  1  0  0  0  0
  2  3  2  0  0  0  0
  3  4  1  0  0  0  0
  4  5  2  0  0  0  0
  5  6  1  0  0  0  0
  6  7  2  0  0  0  0
  2  7  1  0  0  0  0
  5  8  1  0  0  0  0
  8  9  2  0  0  0  0
  8 10  2  0  0  0  0
  8 11  1  0  0  0  0
 11 12  1  0  0  0  0
 12 13  2  0  0  0  0
 13 14  1  0  0  0  0
 14 15  1  0  0  0  0
 15 16  1  0  0  0  0
 16 17  1  0  0  0  0
 16 18  2  0  0  0  0
 18 19  1  0  0  0  0
 14 19  2  0  0  0  0
 19 20  1  0  0  0  0
 11 20  1  0  0  0  0
 20 21  1  0  0  0  0
M  END
> <Molecule Name>
CHEMBL172083

> <IUPAC>
6-bromo-2-(4-methylbenzenesulfonyl)-1H,2H-thieno[3,2-d][1,2,3]diazaborinin-1-ol

> <Collections>
TrainingSet_Kleb_p_ALPerryman_JSF

> <ChEMBL_Data_Neisseria_g: Qualifier_for_MIC_Ng>
=

> <ChEMBL_Data_Neisseria_g: ASSAY_CHEMBLID>
CHEMBL858169

> <ChEMBL_Data_Neisseria_g: DESCRIPTION_of_Assay_Ng>
Minimum inhibitory concentration of compound against Neisseria gonorrhoeae W2

> <ChEMBL_Data_Neisseria_g: PUBMED_ID>
6379179

> <ChEMBL_Data_Neisseria_g: YEAR>
1984

> <ChEMBL_Data_Neisseria_g: JOURNAL>
J. Med. Chem.

> <ChEMBL_Data_Neisseria_g: VOLUME>
27

> <ChEMBL_Data_Neisseria_g: FIRST_PAGE>
947

> <ChEMBL_Data_Neisseria_g: MIC_vs_Neisseria_microg_per_mL>
2

> <ALogP>
3.911

> <Active>
1

> <Molecular_Weight>
385.064

$$$$

Generated by Molecular Materials Informatics

 18 19  0  0  0  0  0  0  0  0999 V2000
   -3.7670   -4.6499    0.0000 C   0  0  0  0  0  0  0  0  0  0  0  0
   -2.4681   -3.8999    0.0000 C   0  0  0  0  0  0  0  0  0  0  0  0
   -2.4681   -2.4000    0.0000 C   0  0  0  0  0  0  0  0  0  0  0  0
   -1.1691   -1.6500    0.0000 S   0  0  0  0  0  0  0  0  0  0  0  0
   -0.4191   -2.9491    0.0000 O   0  0  0  0  0  0  0  0  0  0  0  0
   -1.9190   -0.3509    0.0000 O   0  0  0  0  0  0  0  0  0  0  0  0
    0.1300   -0.9000    0.0000 N   0  0  0  0  0  0  0  0  0  0  0  0
    0.1300    0.5999    0.0000 N   0  0  0  0  0  0  0  0  0  0  0  0
    1.4289    1.3499    0.0000 C   0  0  0  0  0  0  0  0  0  0  0  0
    2.7279    0.5999    0.0000 C   0  0  0  0  0  0  0  0  0  0  0  0
    4.0270    1.3499    0.0000 C   0  0  0  0  0  0  0  0  0  0  0  0
    5.3260    0.5999    0.0000 C   0  0  0  0  0  0  0  0  0  0  0  0
    6.6249    1.3499    0.0000 Cl  0  0  0  0  0  0  0  0  0  0  0  0
    5.3260   -0.9000    0.0000 C   0  0  0  0  0  0  0  0  0  0  0  0
    4.0270   -1.6500    0.0000 C   0  0  0  0  0  0  0  0  0  0  0  0
    2.7279   -0.9000    0.0000 C   0  0  0  0  0  0  0  0  0  0  0  0
    1.4289   -1.6500    0.0000 B   0  0  0  0  0  0  0  0  0  0  0  0
    1.4289   -3.1500    0.0000 O   0  0  0  0  0  0  0  0  0  0  0  0
  1  2  1  0  0  0  0
  2  3  1  0  0  0  0
  3  4  1  0  0  0  0
  4  5  2  0  0  0  0
  4  6  2  0  0  0  0
  4  7  1  0  0  0  0
  7  8  1  0  0  0  0
  8  9  2  0  0  0  0
  9 10  1  0  0  0  0
 10 11  2  0  0  0  0
 11 12  1  0  0  0  0
 12 13  1  0  0  0  0
 12 14  2  0  0  0  0
 14 15  1  0  0  0  0
 15 16  2  0  0  0  0
 10 16  1  0  0  0  0
 16 17  1  0  0  0  0
  7 17  1  0  0  0  0
 17 18  1  0  0  0  0
M  END
> <Molecule Name>
CHEMBL171951

> <CDD Number>
CDD-2163925

> <IUPAC>
6-chloro-2-(propane-1-sulfonyl)-1,2-dihydro-2,3,1-benzodiazaborinin-1-ol

> <Collections>
TrainingSet_Kleb_p_ALPerryman_JSF

> <ChEMBL_Data_Neisseria_g: Qualifier_for_MIC_Ng>
=

> <ChEMBL_Data_Neisseria_g: ASSAY_CHEMBLID>
CHEMBL753615

> <ChEMBL_Data_Neisseria_g: DESCRIPTION_of_Assay_Ng>
Minimum inhibitory concentration of compound against Neisseria gonorrhoeae AS 7720

> <ChEMBL_Data_Neisseria_g: PUBMED_ID>
6379179

> <ChEMBL_Data_Neisseria_g: YEAR>
1984

> <ChEMBL_Data_Neisseria_g: JOURNAL>
J. Med. Chem.

> <ChEMBL_Data_Neisseria_g: VOLUME>
27

> <ChEMBL_Data_Neisseria_g: FIRST_PAGE>
947

> <ChEMBL_Data_Neisseria_g: MIC_vs_Neisseria_microg_per_mL>
2

> <ALogP>
2.864

> <Active>
1

> <Molecular_Weight>
286.543

$$$$

Generated by Molecular Materials Informatics

 21 23  0  0  0  0  0  0  0  0999 V2000
   -5.4883   -4.6499    0.0000 C   0  0  0  0  0  0  0  0  0  0  0  0
   -4.1892   -3.8999    0.0000 C   0  0  0  0  0  0  0  0  0  0  0  0
   -4.1892   -2.4000    0.0000 C   0  0  0  0  0  0  0  0  0  0  0  0
   -2.8902   -1.6500    0.0000 C   0  0  0  0  0  0  0  0  0  0  0  0
   -1.5913   -2.4000    0.0000 C   0  0  0  0  0  0  0  0  0  0  0  0
   -1.5913   -3.8999    0.0000 C   0  0  0  0  0  0  0  0  0  0  0  0
   -2.8902   -4.6499    0.0000 C   0  0  0  0  0  0  0  0  0  0  0  0
   -0.2923   -1.6500    0.0000 S   0  0  0  0  0  0  0  0  0  0  0  0
    0.4577   -2.9491    0.0000 O   0  0  0  0  0  0  0  0  0  0  0  0
   -1.0423   -0.3509    0.0000 O   0  0  0  0  0  0  0  0  0  0  0  0
    1.0068   -0.9000    0.0000 N   0  0  0  0  0  0  0  0  0  0  0  0
    1.0068    0.5999    0.0000 N   0  0  0  0  0  0  0  0  0  0  0  0
    2.3056    1.3499    0.0000 C   0  0  0  0  0  0  0  0  0  0  0  0
    3.6047    0.5999    0.0000 C   0  0  0  0  0  0  0  0  0  0  0  0
    4.9037    1.3499    0.0000 C   0  0  0  0  0  0  0  0  0  0  0  0
    6.2028    0.5999    0.0000 C   0  0  0  0  0  0  0  0  0  0  0  0
    6.2028   -0.9000    0.0000 C   0  0  0  0  0  0  0  0  0  0  0  0
    4.9037   -1.6500    0.0000 C   0  0  0  0  0  0  0  0  0  0  0  0
    3.6047   -0.9000    0.0000 C   0  0  0  0  0  0  0  0  0  0  0  0
    2.3056   -1.6500    0.0000 B   0  0  0  0  0  0  0  0  0  0  0  0
    2.3056   -3.1500    0.0000 O   0  0  0  0  0  0  0  0  0  0  0  0
  1  2  1  0  0  0  0
  2  3  2  0  0  0  0
  3  4  1  0  0  0  0
  4  5  2  0  0  0  0
  5  6  1  0  0  0  0
  6  7  2  0  0  0  0
  2  7  1  0  0  0  0
  5  8  1  0  0  0  0
  8  9  2  0  0  0  0
  8 10  2  0  0  0  0
  8 11  1  0  0  0  0
 11 12  1  0  0  0  0
 12 13  2  0  0  0  0
 13 14  1  0  0  0  0
 14 15  2  0  0  0  0
 15 16  1  0  0  0  0
 16 17  2  0  0  0  0
 17 18  1  0  0  0  0
 18 19  2  0  0  0  0
 14 19  1  0  0  0  0
 19 20  1  0  0  0  0
 11 20  1  0  0  0  0
 20 21  1  0  0  0  0
M  END
> <Molecule Name>
CHEMBL168634

> <CDD Number>
CDD-50624

> <IUPAC>
2-(4-methylbenzenesulfonyl)-1,2-dihydro-2,3,1-benzodiazaborinin-1-ol

> <Collections>
TrainingSet_Kleb_p_ALPerryman_JSF

> <ChEMBL_Data_Neisseria_g: Qualifier_for_MIC_Ng>
=

> <ChEMBL_Data_Neisseria_g: ASSAY_CHEMBLID>
CHEMBL858169

> <ChEMBL_Data_Neisseria_g: DESCRIPTION_of_Assay_Ng>
Minimum inhibitory concentration of compound against Neisseria gonorrhoeae W2

> <ChEMBL_Data_Neisseria_g: PUBMED_ID>
6379179

> <ChEMBL_Data_Neisseria_g: YEAR>
1984

> <ChEMBL_Data_Neisseria_g: JOURNAL>
J. Med. Chem.

> <ChEMBL_Data_Neisseria_g: VOLUME>
27

> <ChEMBL_Data_Neisseria_g: FIRST_PAGE>
947

> <ChEMBL_Data_Neisseria_g: MIC_vs_Neisseria_microg_per_mL>
8

> <ALogP>
3.39

> <Active>
1

> <Molecular_Weight>
300.141

$$$$

Generated by Molecular Materials Informatics

 22 24  0  0  0  0  0  0  0  0999 V2000
    4.7416    3.4125    0.0000 C   0  0  0  0  0  0  0  0  0  0  0  0
    4.7416    1.9125    0.0000 N   0  0  0  0  0  0  0  0  0  0  0  0
    6.0405    1.1625    0.0000 C   0  0  0  0  0  0  0  0  0  0  0  0
    7.3396    1.9125    0.0000 O   0  0  0  0  0  0  0  0  0  0  0  0
    6.0405   -0.3375    0.0000 C   0  0  0  0  0  0  0  0  0  0  0  0
    4.7416   -1.0875    0.0000 C   0  0  0  0  0  0  0  0  0  0  0  0
    4.7416   -2.5875    0.0000 C   0  0  0  0  0  0  0  0  0  0  0  0
    3.4425   -0.3375    0.0000 C   0  0  0  0  0  0  0  0  0  0  0  0
    3.4425    1.1625    0.0000 C   0  0  0  0  0  0  0  0  0  0  0  0
    2.1434    1.9125    0.0000 C   0  0  0  0  0  0  0  0  0  0  0  0
    2.1434    3.4125    0.0000 O   0  0  0  0  0  0  0  0  0  0  0  0
    0.8443    1.1625    0.0000 C   0  0  0  0  0  0  0  0  0  0  0  0
    0.8443   -0.3375    0.0000 C   0  0  0  0  0  0  0  0  0  0  0  0
   -0.4546   -1.0875    0.0000 C   0  0  0  0  0  0  0  0  0  0  0  0
   -1.7537   -0.3375    0.0000 C   0  0  0  0  0  0  0  0  0  0  0  0
   -1.7537    1.1625    0.0000 C   0  0  0  0  0  0  0  0  0  0  0  0
   -3.0528    1.9125    0.0000 O   0  0  0  0  0  0  0  0  0  0  0  0
   -0.4546    1.9125    0.0000 N   0  0  0  0  0  0  0  0  0  0  0  0
   -0.4546    3.4125    0.0000 C   0  0  0  0  0  0  0  0  0  0  0  0
   -0.4546   -2.5875    0.0000 C   0  0  0  0  0  0  0  0  0  0  0  0
    2.1434   -1.0875    0.0000 C   0  0  0  0  0  0  0  0  0  0  0  0
    2.1434   -2.5875    0.0000 O   0  0  0  0  0  0  0  0  0  0  0  0
  1  2  1  0  0  0  0
  2  3  1  0  0  0  0
  3  4  2  0  0  0  0
  3  5  1  0  0  0  0
  5  6  2  0  0  0  0
  6  7  1  0  0  0  0
  6  8  1  0  0  0  0
  8  9  2  0  0  0  0
  2  9  1  0  0  0  0
  9 10  1  0  0  0  0
 10 11  2  0  0  0  0
 10 12  1  0  0  0  0
 12 13  2  0  0  0  0
 13 14  1  0  0  0  0
 14 15  2  0  0  0  0
 15 16  1  0  0  0  0
 16 17  2  0  0  0  0
 16 18  1  0  0  0  0
 12 18  1  0  0  0  0
 18 19  1  0  0  0  0
 14 20  1  0  0  0  0
 13 21  1  0  0  0  0
  8 21  1  0  0  0  0
 21 22  2  0  0  0  0
M  END
> <Molecule Name>
CHEMBL124804

> <IUPAC>
1,4,6,9-tetramethyl-1H,2H,5H,8H,9H,10H-pyrido[3,2-g]quinoline-2,5,8,10-tetrone

> <Collections>
Set2_NotListedAsBetaLactamResistant (mostly)

> <ChEMBL_Data_Neisseria_g: Molecule_Preferred_NAME>
DIAZAANTHRAQUINONE

> <ChEMBL_Data_Neisseria_g: NUM_RO5_VIOLATIONS>
0

> <ChEMBL_Data_Neisseria_g: Qualifier_for_MIC_Ng>
=

> <ChEMBL_Data_Neisseria_g: ASSAY_CHEMBLID>
CHEMBL977465

> <ChEMBL_Data_Neisseria_g: DESCRIPTION_of_Assay_Ng>
Antibacterial activity against Neisseria gonorrhoeae ATCC 49226 by broth microdilution method

> <ChEMBL_Data_Neisseria_g: PUBMED_ID>
16724845

> <ChEMBL_Data_Neisseria_g: YEAR>
2006

> <ChEMBL_Data_Neisseria_g: JOURNAL>
J. Nat. Prod.

> <ChEMBL_Data_Neisseria_g: VOLUME>
69

> <ChEMBL_Data_Neisseria_g: FIRST_PAGE>
804

> <ChEMBL_Data_Neisseria_g: MIC_vs_Neisseria_microg_per_mL>
4

> <ALogP>
0.166

> <Active>
1

> <Molecular_Weight>
298.293

$$$$

Generated by Molecular Materials Informatics

 24 25  0  0  0  0  0  0  0  0999 V2000
   -3.2069    7.6927    0.0000 C   0  0  0  0  0  0  0  0  0  0  0  0
   -3.2069    6.1927    0.0000 O   0  0  0  0  0  0  0  0  0  0  0  0
   -1.9080    5.4427    0.0000 C   0  0  0  0  0  0  0  0  0  0  0  0
   -1.9080    3.9427    0.0000 C   0  0  0  0  0  0  0  0  0  0  0  0
   -0.6089    3.1927    0.0000 N   0  0  0  0  0  0  0  0  0  0  0  0
   -0.6089    1.6927    0.0000 C   0  0  0  0  0  0  0  0  0  0  0  0
   -1.9080    0.9427    0.0000 N   0  0  0  0  0  0  0  0  0  0  0  0
    0.6902    0.9427    0.0000 N   0  0  0  0  0  0  0  0  0  0  0  0
    0.6902   -0.5573    0.0000 C   0  0  0  0  0  0  0  0  0  0  0  0
    1.9037   -1.4389    0.0000 N   0  0  0  0  0  0  0  0  0  0  0  0
    1.4402   -2.8654    0.0000 C   0  0  0  0  0  0  0  0  0  0  0  0
   -0.0598   -2.8654    0.0000 C   0  0  0  0  0  0  0  0  0  0  0  0
   -0.5234   -1.4389    0.0000 S   0  0  0  0  0  0  0  0  0  0  0  0
    2.3218   -4.0791    0.0000 C   0  0  0  0  0  0  0  0  0  0  0  0
    3.8137   -3.9222    0.0000 C   0  0  0  0  0  0  0  0  0  0  0  0
    4.6953   -5.1358    0.0000 C   0  0  0  0  0  0  0  0  0  0  0  0
    4.0851   -6.5062    0.0000 C   0  0  0  0  0  0  0  0  0  0  0  0
    2.5935   -6.6629    0.0000 C   0  0  0  0  0  0  0  0  0  0  0  0
    1.9833   -8.0333    0.0000 C   0  0  0  0  0  0  0  0  0  0  0  0
    2.8649   -9.2467    0.0000 N   0  0  0  0  0  0  0  0  0  0  0  0
    2.2549  -10.6171    0.0000 C   0  0  0  0  0  0  0  0  0  0  0  0
    3.1366  -11.8305    0.0000 O   0  0  0  0  0  0  0  0  0  0  0  0
    0.7631  -10.7738    0.0000 C   0  0  0  0  0  0  0  0  0  0  0  0
    1.7117   -5.4494    0.0000 C   0  0  0  0  0  0  0  0  0  0  0  0
  1  2  1  0  0  0  0
  2  3  1  0  0  0  0
  3  4  1  0  0  0  0
  4  5  1  0  0  0  0
  5  6  2  0  0  0  0
  6  7  1  0  0  0  0
  6  8  1  0  0  0  0
  8  9  1  0  0  0  0
  9 10  2  0  0  0  0
 10 11  1  0  0  0  0
 11 12  2  0  0  0  0
 12 13  1  0  0  0  0
  9 13  1  0  0  0  0
 11 14  1  0  0  0  0
 14 15  2  0  0  0  0
 15 16  1  0  0  0  0
 16 17  2  0  0  0  0
 17 18  1  0  0  0  0
 18 19  1  0  0  0  0
 19 20  1  0  0  0  0
 20 21  1  0  0  0  0
 21 22  2  0  0  0  0
 21 23  1  0  0  0  0
 18 24  2  0  0  0  0
 14 24  1  0  0  0  0
M  END
> <Molecule Name>
CHEMBL112352

> <IUPAC>
N-[(3-{2-[N'-(2-methoxyethyl)carbamimidamido]-1,3-thiazol-4-yl}phenyl)methyl]acetamide

> <ChEMBL_Data_Neisseria_g: NUM_RO5_VIOLATIONS>
0

> <ChEMBL_Data_Neisseria_g: Qualifier_for_MIC_Ng>
>

> <ChEMBL_Data_Neisseria_g: ASSAY_CHEMBLID>
CHEMBL750220

> <ChEMBL_Data_Neisseria_g: DESCRIPTION_of_Assay_Ng>
Antimicrobial activity was measured against Neisseria gonorrhoeae organism

> <ChEMBL_Data_Neisseria_g: PUBMED_ID>
10966750

> <ChEMBL_Data_Neisseria_g: YEAR>
2000

> <ChEMBL_Data_Neisseria_g: JOURNAL>
J. Med. Chem.

> <ChEMBL_Data_Neisseria_g: VOLUME>
43

> <ChEMBL_Data_Neisseria_g: FIRST_PAGE>
3315

> <ChEMBL_Data_Neisseria_g: MIC_vs_Neisseria_microg_per_mL>
100

> <ALogP>
0.941

> <Active>
0

> <Molecular_Weight>
347.435

$$$$

Generated by Molecular Materials Informatics

 30 32  0  0  0  0  0  0  0  0999 V2000
   -2.5913    0.3368    0.0000 C   0  0  0  0  0  0  0  0  0  0  0  0
   -1.2922    1.0868    0.0000 O   0  0  0  0  0  0  0  0  0  0  0  0
   -1.2922    2.5868    0.0000 C   0  0  0  0  0  0  0  0  0  0  0  0
   -2.5913    3.3368    0.0000 C   0  0  0  0  0  0  0  0  0  0  0  0
   -2.5913    4.8368    0.0000 C   0  0  0  0  0  0  0  0  0  0  0  0
   -1.2922    5.5868    0.0000 C   0  0  0  0  0  0  0  0  0  0  0  0
    0.0067    4.8368    0.0000 C   0  0  0  0  0  0  0  0  0  0  0  0
    0.0067    3.3368    0.0000 C   0  0  0  0  0  0  0  0  0  0  0  0
    1.3058    2.5868    0.0000 C   0  0  0  0  0  0  0  0  0  0  0  0
    1.3058    1.0868    0.0000 C   0  0  0  0  0  0  0  0  0  0  0  0
    2.6049    0.3368    0.0000 N   0  0  0  0  0  0  0  0  0  0  0  0
    2.6049   -1.1632    0.0000 C   0  0  0  0  0  0  0  0  0  0  0  0
    1.3058   -1.9132    0.0000 N   0  0  0  0  0  0  0  0  0  0  0  0
    3.9040   -1.9132    0.0000 N   0  0  0  0  0  0  0  0  0  0  0  0
    3.9040   -3.4133    0.0000 C   0  0  0  0  0  0  0  0  0  0  0  0
    5.1174   -4.2949    0.0000 N   0  0  0  0  0  0  0  0  0  0  0  0
    4.6540   -5.7214    0.0000 C   0  0  0  0  0  0  0  0  0  0  0  0
    3.1540   -5.7214    0.0000 C   0  0  0  0  0  0  0  0  0  0  0  0
    2.6903   -4.2949    0.0000 S   0  0  0  0  0  0  0  0  0  0  0  0
    5.5356   -6.9351    0.0000 C   0  0  0  0  0  0  0  0  0  0  0  0
    7.0356   -6.9351    0.0000 O   0  0  0  0  0  0  0  0  0  0  0  0
    7.4991   -8.3616    0.0000 C   0  0  0  0  0  0  0  0  0  0  0  0
    8.9256   -8.8251    0.0000 C   0  0  0  0  0  0  0  0  0  0  0  0
    6.2856   -9.2433    0.0000 C   0  0  0  0  0  0  0  0  0  0  0  0
    6.2856  -10.7433    0.0000 C   0  0  0  0  0  0  0  0  0  0  0  0
    7.5845  -11.4932    0.0000 N   0  0  0  0  0  0  0  0  0  0  0  0
    7.5845  -12.9932    0.0000 C   0  0  0  0  0  0  0  0  0  0  0  0
    8.8836  -13.7433    0.0000 O   0  0  0  0  0  0  0  0  0  0  0  0
    6.2856  -13.7433    0.0000 C   0  0  0  0  0  0  0  0  0  0  0  0
    5.0720   -8.3616    0.0000 C   0  0  0  0  0  0  0  0  0  0  0  0
  1  2  1  0  0  0  0
  2  3  1  0  0  0  0
  3  4  2  0  0  0  0
  4  5  1  0  0  0  0
  5  6  2  0  0  0  0
  6  7  1  0  0  0  0
  7  8  2  0  0  0  0
  3  8  1  0  0  0  0
  8  9  1  0  0  0  0
  9 10  1  0  0  0  0
 10 11  1  0  0  0  0
 11 12  2  0  0  0  0
 12 13  1  0  0  0  0
 12 14  1  0  0  0  0
 14 15  1  0  0  0  0
 15 16  2  0  0  0  0
 16 17  1  0  0  0  0
 17 18  2  0  0  0  0
 18 19  1  0  0  0  0
 15 19  1  0  0  0  0
 17 20  1  0  0  0  0
 20 21  1  0  0  0  0
 21 22  1  0  0  0  0
 22 23  1  0  0  0  0
 22 24  2  0  0  0  0
 24 25  1  0  0  0  0
 25 26  1  0  0  0  0
 26 27  1  0  0  0  0
 27 28  2  0  0  0  0
 27 29  1  0  0  0  0
 24 30  1  0  0  0  0
 20 30  2  0  0  0  0
M  END
> <Molecule Name>
CHEMBL100133

> <IUPAC>
N-{[5-(2-{N'-[2-(2-methoxyphenyl)ethyl]carbamimidamido}-1,3-thiazol-4-yl)-2-methylfuran-3-yl]methyl}acetamide

> <ChEMBL_Data_Neisseria_g: NUM_RO5_VIOLATIONS>
0

> <ChEMBL_Data_Neisseria_g: Qualifier_for_MIC_Ng>
>

> <ChEMBL_Data_Neisseria_g: ASSAY_CHEMBLID>
CHEMBL753608

> <ChEMBL_Data_Neisseria_g: DESCRIPTION_of_Assay_Ng>
Antimicrobial activity against Neisseria gonorrhoeae

> <ChEMBL_Data_Neisseria_g: PUBMED_ID>
10425101

> <ChEMBL_Data_Neisseria_g: YEAR>
1999

> <ChEMBL_Data_Neisseria_g: JOURNAL>
J. Med. Chem.

> <ChEMBL_Data_Neisseria_g: VOLUME>
42

> <ChEMBL_Data_Neisseria_g: FIRST_PAGE>
2920

> <ChEMBL_Data_Neisseria_g: MIC_vs_Neisseria_microg_per_mL>
100

> <ALogP>
2.501

> <Active>
0

> <Molecular_Weight>
427.52

$$$$

Generated by Molecular Materials Informatics

 34 38  0  0  0  0  0  0  0  0999 V2000
   -8.5086    2.9249    0.0000 C   0  0  0  0  0  0  0  0  0  0  0  0
   -7.2095    2.1750    0.0000 O   0  0  0  0  0  0  0  0  0  0  0  0
   -7.2095    0.6750    0.0000 C   0  0  0  0  0  0  0  0  0  0  0  0
   -5.9106   -0.0750    0.0000 C   0  0  0  0  0  0  0  0  0  0  0  0
   -5.9106   -1.5750    0.0000 C   0  0  0  0  0  0  0  0  0  0  0  0
   -7.2095   -2.3250    0.0000 C   0  0  0  0  0  0  0  0  0  0  0  0
   -8.5086   -1.5750    0.0000 C   0  0  0  0  0  0  0  0  0  0  0  0
   -8.5086   -0.0750    0.0000 C   0  0  0  0  0  0  0  0  0  0  0  0
   -9.8076    0.6750    0.0000 O   0  0  0  0  0  0  0  0  0  0  0  0
   -4.6115   -2.3250    0.0000 C   0  0  0  0  0  0  0  0  0  0  0  0
   -3.3125   -1.5750    0.0000 O   0  0  0  0  0  0  0  0  0  0  0  0
   -2.0134   -2.3250    0.0000 C   0  0  0  0  0  0  0  0  0  0  0  0
   -0.7145   -1.5750    0.0000 C   0  0  0  0  0  0  0  0  0  0  0  0
    0.5846   -2.3250    0.0000 C   0  0  0  0  0  0  0  0  0  0  0  0
    0.5846   -3.8250    0.0000 C   0  0  0  0  0  0  0  0  0  0  0  0
   -0.7145   -4.5749    0.0000 C   0  0  0  0  0  0  0  0  0  0  0  0
   -2.0134   -3.8250    0.0000 C   0  0  0  0  0  0  0  0  0  0  0  0
   -3.3125   -4.5749    0.0000 O   0  0  0  0  0  0  0  0  0  0  0  0
   -4.6115   -3.8250    0.0000 C   0  0  0  0  0  0  0  0  0  0  0  0
   -5.9106   -4.5749    0.0000 C   0  0  0  0  0  0  0  0  0  0  0  0
   -7.2095   -3.8250    0.0000 O   0  0  0  0  0  0  0  0  0  0  0  0
    1.8836   -1.5750    0.0000 C   0  0  0  0  0  0  0  0  0  0  0  0
    1.8836   -0.0750    0.0000 C   0  0  0  0  0  0  0  0  0  0  0  0
    3.1825    0.6750    0.0000 C   0  0  0  0  0  0  0  0  0  0  0  0
    3.1825    2.1750    0.0000 O   0  0  0  0  0  0  0  0  0  0  0  0
    4.4816   -0.0750    0.0000 C   0  0  0  0  0  0  0  0  0  0  0  0
    5.7807    0.6750    0.0000 C   0  0  0  0  0  0  0  0  0  0  0  0
    5.7807    2.1750    0.0000 O   0  0  0  0  0  0  0  0  0  0  0  0
    7.0797   -0.0750    0.0000 C   0  0  0  0  0  0  0  0  0  0  0  0
    7.0797   -1.5750    0.0000 C   0  0  0  0  0  0  0  0  0  0  0  0
    8.3786   -2.3250    0.0000 O   0  0  0  0  0  0  0  0  0  0  0  0
    5.7807   -2.3250    0.0000 C   0  0  0  0  0  0  0  0  0  0  0  0
    4.4816   -1.5750    0.0000 C   0  0  0  0  0  0  0  0  0  0  0  0
    3.1825   -2.3250    0.0000 O   0  0  0  0  0  0  0  0  0  0  0  0
  1  2  1  0  0  0  0
  2  3  1  0  0  0  0
  3  4  2  0  0  0  0
  4  5  1  0  0  0  0
  5  6  2  0  0  0  0
  6  7  1  0  0  0  0
  7  8  2  0  0  0  0
  3  8  1  0  0  0  0
  8  9  1  0  0  0  0
 10  5  1  1  0  0  0
 10 11  1  0  0  0  0
 11 12  1  0  0  0  0
 12 13  2  0  0  0  0
 13 14  1  0  0  0  0
 14 15  2  0  0  0  0
 15 16  1  0  0  0  0
 16 17  2  0  0  0  0
 12 17  1  0  0  0  0
 17 18  1  0  0  0  0
 18 19  1  0  0  0  0
 10 19  1  0  0  0  0
 19 20  1  6  0  0  0
 20 21  1  0  0  0  0
 14 22  1  0  0  0  0
 22 23  2  0  0  0  0
 23 24  1  0  0  0  0
 24 25  2  0  0  0  0
 24 26  1  0  0  0  0
 26 27  2  0  0  0  0
 27 28  1  0  0  0  0
 27 29  1  0  0  0  0
 29 30  2  0  0  0  0
 30 31  1  0  0  0  0
 30 32  1  0  0  0  0
 32 33  2  0  0  0  0
 26 33  1  0  0  0  0
 33 34  1  0  0  0  0
 22 34  1  0  0  0  0
M  END
> <Molecule Name>
CHEMBL89401

> <IUPAC>
5,7-dihydroxy-2-[(2R,3R)-3-(4-hydroxy-3-methoxyphenyl)-2-(hydroxymethyl)-2,3-dihydro-1,4-benzodioxin-6-yl]-4H-chromen-4-one

> <ChEMBL_Data_Neisseria_g: Molecule_Preferred_NAME>
HYDNOCARPIN

> <ChEMBL_Data_Neisseria_g: NUM_RO5_VIOLATIONS>
0

> <ChEMBL_Data_Neisseria_g: Qualifier_for_MIC_Ng>
=

> <ChEMBL_Data_Neisseria_g: ASSAY_CHEMBLID>
CHEMBL1027460

> <ChEMBL_Data_Neisseria_g: DESCRIPTION_of_Assay_Ng>
Antimicrobial activity against Neisseria gonorrhoeae

> <ChEMBL_Data_Neisseria_g: PUBMED_ID>
12608861

> <ChEMBL_Data_Neisseria_g: YEAR>
2003

> <ChEMBL_Data_Neisseria_g: JOURNAL>
J. Nat. Prod.

> <ChEMBL_Data_Neisseria_g: VOLUME>
66

> <ChEMBL_Data_Neisseria_g: FIRST_PAGE>
259

> <ChEMBL_Data_Neisseria_g: MIC_vs_Neisseria_microg_per_mL>
0.5

> <ALogP>
3.281

> <Active>
1

> <Molecular_Weight>
464.421

$$$$

Generated by Molecular Materials Informatics

 19 20  0  0  0  0  0  0  0  0999 V2000
    4.6115    1.5187    0.0000 C   0  0  0  0  0  0  0  0  0  0  0  0
    3.3125    0.7687    0.0000 O   0  0  0  0  0  0  0  0  0  0  0  0
    3.3125   -0.7313    0.0000 C   0  0  0  0  0  0  0  0  0  0  0  0
    4.6115   -1.4813    0.0000 C   0  0  0  0  0  0  0  0  0  0  0  0
    4.6115   -2.9812    0.0000 C   0  0  0  0  0  0  0  0  0  0  0  0
    5.9106   -3.7312    0.0000 O   0  0  0  0  0  0  0  0  0  0  0  0
    5.9106   -5.2312    0.0000 C   0  0  0  0  0  0  0  0  0  0  0  0
    3.3125   -3.7312    0.0000 C   0  0  0  0  0  0  0  0  0  0  0  0
    2.0134   -2.9812    0.0000 C   0  0  0  0  0  0  0  0  0  0  0  0
    2.0134   -1.4813    0.0000 C   0  0  0  0  0  0  0  0  0  0  0  0
    0.7145   -3.7312    0.0000 C   0  0  0  0  0  0  0  0  0  0  0  0
    0.7145   -5.2312    0.0000 O   0  0  0  0  0  0  0  0  0  0  0  0
   -0.5846   -2.9812    0.0000 C   0  0  0  0  0  0  0  0  0  0  0  0
   -1.8836   -3.7312    0.0000 C   0  0  0  0  0  0  0  0  0  0  0  0
   -3.1825   -2.9812    0.0000 C   0  0  0  0  0  0  0  0  0  0  0  0
   -3.1825   -1.4813    0.0000 C   0  0  0  0  0  0  0  0  0  0  0  0
   -4.4816   -0.7313    0.0000 O   0  0  0  0  0  0  0  0  0  0  0  0
   -1.8836   -0.7313    0.0000 C   0  0  0  0  0  0  0  0  0  0  0  0
   -0.5846   -1.4813    0.0000 C   0  0  0  0  0  0  0  0  0  0  0  0
  1  2  1  0  0  0  0
  2  3  1  0  0  0  0
  3  4  2  0  0  0  0
  4  5  1  0  0  0  0
  5  6  1  0  0  0  0
  6  7  1  0  0  0  0
  5  8  2  0  0  0  0
  8  9  1  0  0  0  0
  9 10  2  0  0  0  0
  3 10  1  0  0  0  0
  9 11  1  0  0  0  0
 11 12  1  0  0  0  0
 11 13  1  0  0  0  0
 13 14  2  0  0  0  0
 14 15  1  0  0  0  0
 15 16  2  0  0  0  0
 16 17  1  0  0  0  0
 16 18  1  0  0  0  0
 18 19  2  0  0  0  0
 13 19  1  0  0  0  0
M  END
> <Molecule Name>
CHEMBL88005

> <IUPAC>
4-[(3,5-dimethoxyphenyl)(hydroxy)methyl]phenol

> <ChEMBL_Data_Neisseria_g: NUM_RO5_VIOLATIONS>
0

> <ChEMBL_Data_Neisseria_g: Qualifier_for_MIC_Ng>
=

> <ChEMBL_Data_Neisseria_g: ASSAY_CHEMBLID>
CHEMBL753617

> <ChEMBL_Data_Neisseria_g: DESCRIPTION_of_Assay_Ng>
The minimum inhibitory concentration (MIC) that inhibits all visible growth of the Neisseria gonorrhoeae (bacteria)

> <ChEMBL_Data_Neisseria_g: PUBMED_ID>
12036362

> <ChEMBL_Data_Neisseria_g: YEAR>
2002

> <ChEMBL_Data_Neisseria_g: JOURNAL>
J. Med. Chem.

> <ChEMBL_Data_Neisseria_g: VOLUME>
45

> <ChEMBL_Data_Neisseria_g: FIRST_PAGE>
2534

> <ChEMBL_Data_Neisseria_g: MIC_vs_Neisseria_microg_per_mL>
4

> <ALogP>
2.562

> <Active>
1

> <Molecular_Weight>
260.285

$$$$

Generated by Molecular Materials Informatics

 19 20  0  0  0  0  0  0  0  0999 V2000
    4.7416    2.4188    0.0000 C   0  0  0  0  0  0  0  0  0  0  0  0
    3.4425    1.6688    0.0000 O   0  0  0  0  0  0  0  0  0  0  0  0
    3.4425    0.1687    0.0000 C   0  0  0  0  0  0  0  0  0  0  0  0
    4.7416   -0.5813    0.0000 C   0  0  0  0  0  0  0  0  0  0  0  0
    4.7416   -2.0812    0.0000 C   0  0  0  0  0  0  0  0  0  0  0  0
    6.0405   -2.8313    0.0000 O   0  0  0  0  0  0  0  0  0  0  0  0
    6.0405   -4.3313    0.0000 C   0  0  0  0  0  0  0  0  0  0  0  0
    3.4425   -2.8313    0.0000 C   0  0  0  0  0  0  0  0  0  0  0  0
    2.1434   -2.0812    0.0000 C   0  0  0  0  0  0  0  0  0  0  0  0
    0.8443   -2.8313    0.0000 C   0  0  0  0  0  0  0  0  0  0  0  0
   -0.4546   -2.0812    0.0000 C   0  0  0  0  0  0  0  0  0  0  0  0
   -0.4546   -0.5813    0.0000 C   0  0  0  0  0  0  0  0  0  0  0  0
   -1.7537    0.1687    0.0000 C   0  0  0  0  0  0  0  0  0  0  0  0
   -1.7537    1.6688    0.0000 C   0  0  0  0  0  0  0  0  0  0  0  0
   -0.4546    2.4188    0.0000 C   0  0  0  0  0  0  0  0  0  0  0  0
   -0.4546    3.9188    0.0000 O   0  0  0  0  0  0  0  0  0  0  0  0
    0.8443    1.6688    0.0000 C   0  0  0  0  0  0  0  0  0  0  0  0
    0.8443    0.1687    0.0000 C   0  0  0  0  0  0  0  0  0  0  0  0
    2.1434   -0.5813    0.0000 C   0  0  0  0  0  0  0  0  0  0  0  0
  1  2  1  0  0  0  0
  2  3  1  0  0  0  0
  3  4  2  0  0  0  0
  4  5  1  0  0  0  0
  5  6  1  0  0  0  0
  6  7  1  0  0  0  0
  5  8  2  0  0  0  0
  8  9  1  0  0  0  0
  9 10  1  0  0  0  0
 10 11  2  0  0  0  0
 11 12  1  0  0  0  0
 12 13  2  0  0  0  0
 13 14  1  0  0  0  0
 14 15  2  0  0  0  0
 15 16  1  0  0  0  0
 15 17  1  0  0  0  0
 17 18  2  0  0  0  0
 12 18  1  0  0  0  0
  9 19  2  0  0  0  0
  3 19  1  0  0  0  0
M  END
> <Molecule Name>
CHEMBL87712

> <IUPAC>
4-[(Z)-2-(3,5-dimethoxyphenyl)ethenyl]phenol

> <ChEMBL_Data_Neisseria_g: NUM_RO5_VIOLATIONS>
0

> <ChEMBL_Data_Neisseria_g: Qualifier_for_MIC_Ng>
=

> <ChEMBL_Data_Neisseria_g: ASSAY_CHEMBLID>
CHEMBL753617

> <ChEMBL_Data_Neisseria_g: DESCRIPTION_of_Assay_Ng>
The minimum inhibitory concentration (MIC) that inhibits all visible growth of the Neisseria gonorrhoeae (bacteria)

> <ChEMBL_Data_Neisseria_g: PUBMED_ID>
12036362

> <ChEMBL_Data_Neisseria_g: YEAR>
2002

> <ChEMBL_Data_Neisseria_g: JOURNAL>
J. Med. Chem.

> <ChEMBL_Data_Neisseria_g: VOLUME>
45

> <ChEMBL_Data_Neisseria_g: FIRST_PAGE>
2534

> <ChEMBL_Data_Neisseria_g: MIC_vs_Neisseria_microg_per_mL>
8

> <ALogP>
3.541

> <Active>
1

> <Molecular_Weight>
256.296

$$$$

Generated by Molecular Materials Informatics

 23 24  0  0  0  0  0  0  0  0999 V2000
    3.3562   -2.8818    0.0000 C   0  0  0  0  0  0  0  0  0  0  0  0
    2.0572   -3.6318    0.0000 O   0  0  0  0  0  0  0  0  0  0  0  0
    2.0572   -5.1318    0.0000 C   0  0  0  0  0  0  0  0  0  0  0  0
    3.3562   -5.8818    0.0000 C   0  0  0  0  0  0  0  0  0  0  0  0
    3.3562   -7.3818    0.0000 C   0  0  0  0  0  0  0  0  0  0  0  0
    4.6553   -8.1317    0.0000 O   0  0  0  0  0  0  0  0  0  0  0  0
    4.6553   -9.6317    0.0000 C   0  0  0  0  0  0  0  0  0  0  0  0
    2.0572   -8.1317    0.0000 C   0  0  0  0  0  0  0  0  0  0  0  0
    0.7583   -7.3818    0.0000 C   0  0  0  0  0  0  0  0  0  0  0  0
   -0.5408   -8.1317    0.0000 C   0  0  0  0  0  0  0  0  0  0  0  0
   -1.8399   -7.3818    0.0000 C   0  0  0  0  0  0  0  0  0  0  0  0
   -1.8399   -5.8818    0.0000 C   0  0  0  0  0  0  0  0  0  0  0  0
   -3.1389   -5.1318    0.0000 C   0  0  0  0  0  0  0  0  0  0  0  0
   -3.1389   -3.6318    0.0000 C   0  0  0  0  0  0  0  0  0  0  0  0
   -1.8399   -2.8818    0.0000 C   0  0  0  0  0  0  0  0  0  0  0  0
   -1.8399   -1.3818    0.0000 O   0  0  0  0  0  0  0  0  0  0  0  0
   -3.1389   -0.6319    0.0000 P   0  0  0  0  0  0  0  0  0  0  0  0
   -4.4378    0.1181    0.0000 O   0  0  0  0  0  0  0  0  0  0  0  0
   -2.3889    0.6672    0.0000 O   0  5  0  0  0  0  0  0  0  0  0  0
   -3.8889   -1.9307    0.0000 O   0  5  0  0  0  0  0  0  0  0  0  0
   -0.5408   -3.6318    0.0000 C   0  0  0  0  0  0  0  0  0  0  0  0
   -0.5408   -5.1318    0.0000 C   0  0  0  0  0  0  0  0  0  0  0  0
    0.7583   -5.8818    0.0000 C   0  0  0  0  0  0  0  0  0  0  0  0
  1  2  1  0  0  0  0
  2  3  1  0  0  0  0
  3  4  2  0  0  0  0
  4  5  1  0  0  0  0
  5  6  1  0  0  0  0
  6  7  1  0  0  0  0
  5  8  2  0  0  0  0
  8  9  1  0  0  0  0
  9 10  1  0  0  0  0
 10 11  2  0  0  0  0
 11 12  1  0  0  0  0
 12 13  2  0  0  0  0
 13 14  1  0  0  0  0
 14 15  2  0  0  0  0
 15 16  1  0  0  0  0
 16 17  1  0  0  0  0
 17 18  2  0  0  0  0
 17 19  1  0  0  0  0
 17 20  1  0  0  0  0
 15 21  1  0  0  0  0
 21 22  2  0  0  0  0
 12 22  1  0  0  0  0
  9 23  2  0  0  0  0
  3 23  1  0  0  0  0
M  CHG  2  19  -1  20  -1
M  END
> <Molecule Name>
CHEMBL87627

> <IUPAC>
{4-[(Z)-2-(3,5-dimethoxyphenyl)ethenyl]phenoxy}phosphonic acid disodium

> <ChEMBL_Data_Neisseria_g: NUM_RO5_VIOLATIONS>
0

> <ChEMBL_Data_Neisseria_g: Qualifier_for_MIC_Ng>
=

> <ChEMBL_Data_Neisseria_g: ASSAY_CHEMBLID>
CHEMBL753617

> <ChEMBL_Data_Neisseria_g: DESCRIPTION_of_Assay_Ng>
The minimum inhibitory concentration (MIC) that inhibits all visible growth of the Neisseria gonorrhoeae (bacteria)

> <ChEMBL_Data_Neisseria_g: PUBMED_ID>
12036362

> <ChEMBL_Data_Neisseria_g: YEAR>
2002

> <ChEMBL_Data_Neisseria_g: JOURNAL>
J. Med. Chem.

> <ChEMBL_Data_Neisseria_g: VOLUME>
45

> <ChEMBL_Data_Neisseria_g: FIRST_PAGE>
2534

> <ChEMBL_Data_Neisseria_g: MIC_vs_Neisseria_microg_per_mL>
8

> <ALogP>
1.109

> <Active>
1

> <Molecular_Weight>
334.26

$$$$

Generated by Molecular Materials Informatics

 20 21  0  0  0  0  0  0  0  0999 V2000
    1.7212    2.7000    0.0000 C   0  0  0  0  0  0  0  0  0  0  0  0
    3.0202    1.9500    0.0000 O   0  0  0  0  0  0  0  0  0  0  0  0
    3.0202    0.4500    0.0000 C   0  0  0  0  0  0  0  0  0  0  0  0
    4.3193   -0.3000    0.0000 C   0  0  0  0  0  0  0  0  0  0  0  0
    4.3193   -1.8000    0.0000 C   0  0  0  0  0  0  0  0  0  0  0  0
    3.0202   -2.5500    0.0000 C   0  0  0  0  0  0  0  0  0  0  0  0
    1.7212   -1.8000    0.0000 C   0  0  0  0  0  0  0  0  0  0  0  0
    1.7212   -0.3000    0.0000 C   0  0  0  0  0  0  0  0  0  0  0  0
    3.0202   -4.0500    0.0000 C   0  0  0  0  0  0  0  0  0  0  0  0
    4.3193   -4.8000    0.0000 O   0  0  0  0  0  0  0  0  0  0  0  0
    1.7212   -4.8000    0.0000 C   0  0  0  0  0  0  0  0  0  0  0  0
    1.7212   -6.3000    0.0000 C   0  0  0  0  0  0  0  0  0  0  0  0
    0.4222   -7.0500    0.0000 C   0  0  0  0  0  0  0  0  0  0  0  0
    0.4222   -8.5500    0.0000 O   0  0  0  0  0  0  0  0  0  0  0  0
    1.7212   -9.3000    0.0000 C   0  0  0  0  0  0  0  0  0  0  0  0
   -0.8768   -6.3000    0.0000 C   0  0  0  0  0  0  0  0  0  0  0  0
   -0.8768   -4.8000    0.0000 C   0  0  0  0  0  0  0  0  0  0  0  0
   -2.1759   -4.0500    0.0000 O   0  0  0  0  0  0  0  0  0  0  0  0
   -2.1759   -2.5500    0.0000 C   0  0  0  0  0  0  0  0  0  0  0  0
    0.4222   -4.0500    0.0000 C   0  0  0  0  0  0  0  0  0  0  0  0
  1  2  1  0  0  0  0
  2  3  1  0  0  0  0
  3  4  2  0  0  0  0
  4  5  1  0  0  0  0
  5  6  2  0  0  0  0
  6  7  1  0  0  0  0
  7  8  2  0  0  0  0
  3  8  1  0  0  0  0
  6  9  1  0  0  0  0
  9 10  2  0  0  0  0
  9 11  1  0  0  0  0
 11 12  2  0  0  0  0
 12 13  1  0  0  0  0
 13 14  1  0  0  0  0
 14 15  1  0  0  0  0
 13 16  2  0  0  0  0
 16 17  1  0  0  0  0
 17 18  1  0  0  0  0
 18 19  1  0  0  0  0
 17 20  2  0  0  0  0
 11 20  1  0  0  0  0
M  END
> <Molecule Name>
CHEMBL86124

> <IUPAC>
(3,5-dimethoxyphenyl)(4-methoxyphenyl)methanone

> <ChEMBL_Data_Neisseria_g: NUM_RO5_VIOLATIONS>
0

> <ChEMBL_Data_Neisseria_g: Qualifier_for_MIC_Ng>
=

> <ChEMBL_Data_Neisseria_g: ASSAY_CHEMBLID>
CHEMBL753617

> <ChEMBL_Data_Neisseria_g: DESCRIPTION_of_Assay_Ng>
The minimum inhibitory concentration (MIC) that inhibits all visible growth of the Neisseria gonorrhoeae (bacteria)

> <ChEMBL_Data_Neisseria_g: PUBMED_ID>
12036362

> <ChEMBL_Data_Neisseria_g: YEAR>
2002

> <ChEMBL_Data_Neisseria_g: JOURNAL>
J. Med. Chem.

> <ChEMBL_Data_Neisseria_g: VOLUME>
45

> <ChEMBL_Data_Neisseria_g: FIRST_PAGE>
2534

> <ChEMBL_Data_Neisseria_g: MIC_vs_Neisseria_microg_per_mL>
32

> <ALogP>
3.184

> <Active>
0

> <Molecular_Weight>
272.296

$$$$

Generated by Molecular Materials Informatics

 19 20  0  0  0  0  0  0  0  0999 V2000
   -2.8903    2.7000    0.0000 C   0  0  0  0  0  0  0  0  0  0  0  0
   -1.5914    1.9500    0.0000 O   0  0  0  0  0  0  0  0  0  0  0  0
   -1.5914    0.4500    0.0000 C   0  0  0  0  0  0  0  0  0  0  0  0
   -0.2923   -0.3000    0.0000 C   0  0  0  0  0  0  0  0  0  0  0  0
   -0.2923   -1.8000    0.0000 C   0  0  0  0  0  0  0  0  0  0  0  0
   -1.5914   -2.5500    0.0000 C   0  0  0  0  0  0  0  0  0  0  0  0
   -2.8903   -1.8000    0.0000 C   0  0  0  0  0  0  0  0  0  0  0  0
   -2.8903   -0.3000    0.0000 C   0  0  0  0  0  0  0  0  0  0  0  0
   -1.5914   -4.0500    0.0000 C   0  0  0  0  0  0  0  0  0  0  0  0
   -2.8903   -4.8000    0.0000 O   0  0  0  0  0  0  0  0  0  0  0  0
   -0.2923   -4.8000    0.0000 C   0  0  0  0  0  0  0  0  0  0  0  0
    1.0068   -4.0500    0.0000 C   0  0  0  0  0  0  0  0  0  0  0  0
    2.3057   -4.8000    0.0000 C   0  0  0  0  0  0  0  0  0  0  0  0
    3.6048   -4.0500    0.0000 O   0  0  0  0  0  0  0  0  0  0  0  0
    2.3057   -6.3000    0.0000 C   0  0  0  0  0  0  0  0  0  0  0  0
    1.0068   -7.0500    0.0000 C   0  0  0  0  0  0  0  0  0  0  0  0
    1.0068   -8.5500    0.0000 O   0  0  0  0  0  0  0  0  0  0  0  0
    2.3057   -9.3000    0.0000 C   0  0  0  0  0  0  0  0  0  0  0  0
   -0.2923   -6.3000    0.0000 C   0  0  0  0  0  0  0  0  0  0  0  0
  1  2  1  0  0  0  0
  2  3  1  0  0  0  0
  3  4  2  0  0  0  0
  4  5  1  0  0  0  0
  5  6  2  0  0  0  0
  6  7  1  0  0  0  0
  7  8  2  0  0  0  0
  3  8  1  0  0  0  0
  6  9  1  0  0  0  0
  9 10  2  0  0  0  0
  9 11  1  0  0  0  0
 11 12  2  0  0  0  0
 12 13  1  0  0  0  0
 13 14  1  0  0  0  0
 13 15  2  0  0  0  0
 15 16  1  0  0  0  0
 16 17  1  0  0  0  0
 17 18  1  0  0  0  0
 16 19  2  0  0  0  0
 11 19  1  0  0  0  0
M  END
> <Molecule Name>
CHEMBL85631

> <IUPAC>
3-methoxy-5-(4-methoxybenzoyl)phenol

> <ChEMBL_Data_Neisseria_g: NUM_RO5_VIOLATIONS>
0

> <ChEMBL_Data_Neisseria_g: Qualifier_for_MIC_Ng>
=

> <ChEMBL_Data_Neisseria_g: ASSAY_CHEMBLID>
CHEMBL754228

> <ChEMBL_Data_Neisseria_g: DESCRIPTION_of_Assay_Ng>
The minimum inhibitory concentration (MIC) that inhibits all visible growth of the Neisseria gonorrhoeae (bacteria); value may range from (16 -32)

> <ChEMBL_Data_Neisseria_g: PUBMED_ID>
12036362

> <ChEMBL_Data_Neisseria_g: YEAR>
2002

> <ChEMBL_Data_Neisseria_g: JOURNAL>
J. Med. Chem.

> <ChEMBL_Data_Neisseria_g: VOLUME>
45

> <ChEMBL_Data_Neisseria_g: FIRST_PAGE>
2534

> <ChEMBL_Data_Neisseria_g: MIC_vs_Neisseria_microg_per_mL>
32

> <ALogP>
2.959

> <Active>
0

> <Molecular_Weight>
258.269

$$$$

Generated by Molecular Materials Informatics

 17 18  0  0  0  0  0  0  0  0999 V2000
    3.0202    1.9499    0.0000 O   0  0  0  0  0  0  0  0  0  0  0  0
    3.0202    0.4499    0.0000 C   0  0  0  0  0  0  0  0  0  0  0  0
    4.3193   -0.3000    0.0000 C   0  0  0  0  0  0  0  0  0  0  0  0
    4.3193   -1.8000    0.0000 C   0  0  0  0  0  0  0  0  0  0  0  0
    3.0202   -2.5500    0.0000 C   0  0  0  0  0  0  0  0  0  0  0  0
    1.7211   -1.8000    0.0000 C   0  0  0  0  0  0  0  0  0  0  0  0
    1.7211   -0.3000    0.0000 C   0  0  0  0  0  0  0  0  0  0  0  0
    3.0202   -4.0500    0.0000 C   0  0  0  0  0  0  0  0  0  0  0  0
    4.3193   -4.8000    0.0000 O   0  0  0  0  0  0  0  0  0  0  0  0
    1.7211   -4.8000    0.0000 C   0  0  0  0  0  0  0  0  0  0  0  0
    1.7211   -6.3000    0.0000 C   0  0  0  0  0  0  0  0  0  0  0  0
    0.4223   -7.0499    0.0000 C   0  0  0  0  0  0  0  0  0  0  0  0
    0.4223   -8.5499    0.0000 O   0  0  0  0  0  0  0  0  0  0  0  0
   -0.8768   -6.3000    0.0000 C   0  0  0  0  0  0  0  0  0  0  0  0
   -0.8768   -4.8000    0.0000 C   0  0  0  0  0  0  0  0  0  0  0  0
   -2.1759   -4.0500    0.0000 O   0  0  0  0  0  0  0  0  0  0  0  0
    0.4223   -4.0500    0.0000 C   0  0  0  0  0  0  0  0  0  0  0  0
  1  2  1  0  0  0  0
  2  3  2  0  0  0  0
  3  4  1  0  0  0  0
  4  5  2  0  0  0  0
  5  6  1  0  0  0  0
  6  7  2  0  0  0  0
  2  7  1  0  0  0  0
  5  8  1  0  0  0  0
  8  9  2  0  0  0  0
  8 10  1  0  0  0  0
 10 11  2  0  0  0  0
 11 12  1  0  0  0  0
 12 13  1  0  0  0  0
 12 14  2  0  0  0  0
 14 15  1  0  0  0  0
 15 16  1  0  0  0  0
 15 17  2  0  0  0  0
 10 17  1  0  0  0  0
M  END
> <Molecule Name>
CHEMBL85205

> <IUPAC>
5-(4-hydroxybenzoyl)benzene-1,3-diol

> <ChEMBL_Data_Neisseria_g: NUM_RO5_VIOLATIONS>
0

> <ChEMBL_Data_Neisseria_g: Qualifier_for_MIC_Ng>
>

> <ChEMBL_Data_Neisseria_g: ASSAY_CHEMBLID>
CHEMBL754227

> <ChEMBL_Data_Neisseria_g: DESCRIPTION_of_Assay_Ng>
The minimum inhibitory concentration (MIC) that inhibits all visible growth of the Neisseria gonorrhoeae (bacteria) at 64 ug/ml

> <ChEMBL_Data_Neisseria_g: PUBMED_ID>
12036362

> <ChEMBL_Data_Neisseria_g: YEAR>
2002

> <ChEMBL_Data_Neisseria_g: JOURNAL>
J. Med. Chem.

> <ChEMBL_Data_Neisseria_g: VOLUME>
45

> <ChEMBL_Data_Neisseria_g: FIRST_PAGE>
2534

> <ChEMBL_Data_Neisseria_g: MIC_vs_Neisseria_microg_per_mL>
64

> <ALogP>
2.508

> <Active>
0

> <Molecular_Weight>
230.216

$$$$

Generated by Molecular Materials Informatics

 18 19  0  0  0  0  0  0  0  0999 V2000
    4.6115    1.5186    0.0000 C   0  0  0  0  0  0  0  0  0  0  0  0
    3.3124    0.7687    0.0000 O   0  0  0  0  0  0  0  0  0  0  0  0
    3.3124   -0.7313    0.0000 C   0  0  0  0  0  0  0  0  0  0  0  0
    4.6115   -1.4813    0.0000 C   0  0  0  0  0  0  0  0  0  0  0  0
    4.6115   -2.9812    0.0000 C   0  0  0  0  0  0  0  0  0  0  0  0
    5.9105   -3.7312    0.0000 O   0  0  0  0  0  0  0  0  0  0  0  0
    3.3124   -3.7312    0.0000 C   0  0  0  0  0  0  0  0  0  0  0  0
    2.0134   -2.9812    0.0000 C   0  0  0  0  0  0  0  0  0  0  0  0
    2.0134   -1.4813    0.0000 C   0  0  0  0  0  0  0  0  0  0  0  0
    0.7145   -3.7312    0.0000 C   0  0  0  0  0  0  0  0  0  0  0  0
    0.7145   -5.2311    0.0000 O   0  0  0  0  0  0  0  0  0  0  0  0
   -0.5846   -2.9812    0.0000 C   0  0  0  0  0  0  0  0  0  0  0  0
   -1.8836   -3.7312    0.0000 C   0  0  0  0  0  0  0  0  0  0  0  0
   -3.1825   -2.9812    0.0000 C   0  0  0  0  0  0  0  0  0  0  0  0
   -3.1825   -1.4813    0.0000 C   0  0  0  0  0  0  0  0  0  0  0  0
   -4.4815   -0.7313    0.0000 O   0  0  0  0  0  0  0  0  0  0  0  0
   -1.8836   -0.7313    0.0000 C   0  0  0  0  0  0  0  0  0  0  0  0
   -0.5846   -1.4813    0.0000 C   0  0  0  0  0  0  0  0  0  0  0  0
  1  2  1  0  0  0  0
  2  3  1  0  0  0  0
  3  4  2  0  0  0  0
  4  5  1  0  0  0  0
  5  6  1  0  0  0  0
  5  7  2  0  0  0  0
  7  8  1  0  0  0  0
  8  9  2  0  0  0  0
  3  9  1  0  0  0  0
  8 10  1  0  0  0  0
 10 11  2  0  0  0  0
 10 12  1  0  0  0  0
 12 13  2  0  0  0  0
 13 14  1  0  0  0  0
 14 15  2  0  0  0  0
 15 16  1  0  0  0  0
 15 17  1  0  0  0  0
 17 18  2  0  0  0  0
 12 18  1  0  0  0  0
M  END
> <Molecule Name>
CHEMBL85204

> <IUPAC>
3-(4-hydroxybenzoyl)-5-methoxyphenol

> <ChEMBL_Data_Neisseria_g: NUM_RO5_VIOLATIONS>
0

> <ChEMBL_Data_Neisseria_g: Qualifier_for_MIC_Ng>
=

> <ChEMBL_Data_Neisseria_g: ASSAY_CHEMBLID>
CHEMBL753617

> <ChEMBL_Data_Neisseria_g: DESCRIPTION_of_Assay_Ng>
The minimum inhibitory concentration (MIC) that inhibits all visible growth of the Neisseria gonorrhoeae (bacteria)

> <ChEMBL_Data_Neisseria_g: PUBMED_ID>
12036362

> <ChEMBL_Data_Neisseria_g: YEAR>
2002

> <ChEMBL_Data_Neisseria_g: JOURNAL>
J. Med. Chem.

> <ChEMBL_Data_Neisseria_g: VOLUME>
45

> <ChEMBL_Data_Neisseria_g: FIRST_PAGE>
2534

> <ChEMBL_Data_Neisseria_g: MIC_vs_Neisseria_microg_per_mL>
32

> <ALogP>
2.733

> <Active>
0

> <Molecular_Weight>
244.243

$$$$

Generated by Molecular Materials Informatics

 12 12  0  0  0  0  0  0  0  0999 V2000
   -0.5845    4.8375    0.0000 C   0  0  0  0  0  0  0  0  0  0  0  0
    0.7145    4.0875    0.0000 O   0  0  0  0  0  0  0  0  0  0  0  0
    0.7145    2.5875    0.0000 C   0  0  0  0  0  0  0  0  0  0  0  0
    2.0134    1.8375    0.0000 C   0  0  0  0  0  0  0  0  0  0  0  0
    2.0134    0.3375    0.0000 C   0  0  0  0  0  0  0  0  0  0  0  0
    0.7145   -0.4125    0.0000 C   0  0  0  0  0  0  0  0  0  0  0  0
    0.7145   -1.9125    0.0000 C   0  0  0  0  0  0  0  0  0  0  0  0
   -0.5845   -2.6625    0.0000 N   0  0  0  0  0  0  0  0  0  0  0  0
   -0.5845   -4.1625    0.0000 C   0  0  0  0  0  0  0  0  0  0  0  0
   -0.5845   -5.6625    0.0000 S   0  0  0  0  0  0  0  0  0  0  0  0
   -0.5845    0.3375    0.0000 C   0  0  0  0  0  0  0  0  0  0  0  0
   -0.5845    1.8375    0.0000 C   0  0  0  0  0  0  0  0  0  0  0  0
  1  2  1  0  0  0  0
  2  3  1  0  0  0  0
  3  4  2  0  0  0  0
  4  5  1  0  0  0  0
  5  6  2  0  0  0  0
  6  7  1  0  0  0  0
  7  8  1  0  0  0  0
  8  9  2  0  0  0  0
  9 10  2  0  0  0  0
  6 11  1  0  0  0  0
 11 12  2  0  0  0  0
  3 12  1  0  0  0  0
M  END
> <Molecule Name>
CHEMBL81201

> <CDD Number>
CDD-1905009

> <IUPAC>
1-(isothiocyanatomethyl)-4-methoxybenzene

> <ChEMBL_Data_Neisseria_g: NUM_RO5_VIOLATIONS>
0

> <ChEMBL_Data_Neisseria_g: Qualifier_for_MIC_Ng>
=

> <ChEMBL_Data_Neisseria_g: ASSAY_CHEMBLID>
CHEMBL883406

> <ChEMBL_Data_Neisseria_g: DESCRIPTION_of_Assay_Ng>
The compound was tested for minimal inhibitory concentration against Penicillinase producing Neisseria gonorrhoeae (PPNG)

> <ChEMBL_Data_Neisseria_g: PUBMED_ID>
12161151

> <ChEMBL_Data_Neisseria_g: YEAR>
2002

> <ChEMBL_Data_Neisseria_g: JOURNAL>
Bioorg. Med. Chem. Lett.

> <ChEMBL_Data_Neisseria_g: VOLUME>
12

> <ChEMBL_Data_Neisseria_g: FIRST_PAGE>
2435

> <ChEMBL_Data_Neisseria_g: MIC_vs_Neisseria_microg_per_mL>
4

> <ALogP>
2.579

> <Active>
1

> <Molecular_Weight>
179.239

$$$$

Generated by Molecular Materials Informatics

 29 33  0  0  0  0  0  0  0  0999 V2000
    0.1696   -7.9167    0.0000 C   0  0  0  0  0  0  0  0  0  0  0  0
    0.1696   -6.4167    0.0000 O   0  0  0  0  0  0  0  0  0  0  0  0
    1.4687   -5.6666    0.0000 C   0  0  0  0  0  0  0  0  0  0  0  0
    1.4687   -4.1667    0.0000 C   0  0  0  0  0  0  0  0  0  0  0  0
    2.7677   -3.4167    0.0000 C   0  0  0  0  0  0  0  0  0  0  0  0
    4.0668   -4.1667    0.0000 C   0  0  0  0  0  0  0  0  0  0  0  0
    4.0668   -5.6666    0.0000 C   0  0  0  0  0  0  0  0  0  0  0  0
    5.3657   -6.4167    0.0000 O   0  0  0  0  0  0  0  0  0  0  0  0
    5.3657   -7.9167    0.0000 C   0  0  0  0  0  0  0  0  0  0  0  0
    2.7677   -6.4167    0.0000 C   0  0  0  0  0  0  0  0  0  0  0  0
    2.7677   -7.9167    0.0000 O   0  0  0  0  0  0  0  0  0  0  0  0
    1.4687   -8.6667    0.0000 C   0  0  0  0  0  0  0  0  0  0  0  0
    2.7677   -1.9167    0.0000 C   0  0  0  0  0  0  0  0  0  0  0  0
    1.4687   -1.1666    0.0000 C   0  0  0  0  0  0  0  0  0  0  0  0
    1.4687    0.3334    0.0000 C   0  0  0  0  0  0  0  0  0  0  0  0
    0.0421    0.7968    0.0000 C   0  0  0  0  0  0  0  0  0  0  0  0
   -0.8395   -0.4166    0.0000 O   0  0  0  0  0  0  0  0  0  0  0  0
    0.0421   -1.6303    0.0000 C   0  0  0  0  0  0  0  0  0  0  0  0
   -0.4213   -3.0568    0.0000 O   0  0  0  0  0  0  0  0  0  0  0  0
    2.7677    1.0834    0.0000 C   0  0  0  0  0  0  0  0  0  0  0  0
    4.0668    0.3334    0.0000 C   0  0  0  0  0  0  0  0  0  0  0  0
    5.3657    1.0834    0.0000 C   0  0  0  0  0  0  0  0  0  0  0  0
    6.6648    0.3334    0.0000 C   0  0  0  0  0  0  0  0  0  0  0  0
    8.0914    0.7968    0.0000 O   0  0  0  0  0  0  0  0  0  0  0  0
    8.9730   -0.4166    0.0000 C   0  0  0  0  0  0  0  0  0  0  0  0
    8.0914   -1.6303    0.0000 O   0  0  0  0  0  0  0  0  0  0  0  0
    6.6648   -1.1666    0.0000 C   0  0  0  0  0  0  0  0  0  0  0  0
    5.3657   -1.9167    0.0000 C   0  0  0  0  0  0  0  0  0  0  0  0
    4.0668   -1.1666    0.0000 C   0  0  0  0  0  0  0  0  0  0  0  0
  1  2  1  0  0  0  0
  2  3  1  0  0  0  0
  3  4  2  0  0  0  0
  4  5  1  0  0  0  0
  5  6  2  0  0  0  0
  6  7  1  0  0  0  0
  7  8  1  0  0  0  0
  8  9  1  0  0  0  0
  7 10  2  0  0  0  0
  3 10  1  0  0  0  0
 10 11  1  0  0  0  0
 11 12  1  0  0  0  0
 13  5  1  1  0  0  0
 13 14  1  0  0  0  0
 14 15  1  0  0  0  0
 15 16  1  6  0  0  0
 16 17  1  0  0  0  0
 17 18  1  0  0  0  0
 14 18  1  1  0  0  0
 18 19  2  0  0  0  0
 15 20  1  0  0  0  0
 20 21  1  0  0  0  0
 21 22  2  0  0  0  0
 22 23  1  0  0  0  0
 23 24  1  0  0  0  0
 24 25  1  0  0  0  0
 25 26  1  0  0  0  0
 26 27  1  0  0  0  0
 23 27  2  0  0  0  0
 27 28  1  0  0  0  0
 28 29  2  0  0  0  0
 13 29  1  0  0  0  0
 21 29  1  0  0  0  0
M  END
> <Molecule Name>
CHEMBL63970

> <IUPAC>
(10R,11R,15R)-10-(3,4,5-trimethoxyphenyl)-4,6,13-trioxatetracyclo[7.7.0.0,.0,]hexadeca-1(9),2,7-trien-12-one

> <ChEMBL_Data_Neisseria_g: Molecule_Preferred_NAME>
DESOXYPODOPHYLLOTOXIN

> <ChEMBL_Data_Neisseria_g: NUM_RO5_VIOLATIONS>
0

> <ChEMBL_Data_Neisseria_g: Qualifier_for_MIC_Ng>
=

> <ChEMBL_Data_Neisseria_g: ASSAY_CHEMBLID>
CHEMBL1036073

> <ChEMBL_Data_Neisseria_g: DESCRIPTION_of_Assay_Ng>
Antimicrobial activity against Neisseria gonorrhoeae ATCC 49226 by antimicrobial susceptibility testing

> <ChEMBL_Data_Neisseria_g: PUBMED_ID>
14987061

> <ChEMBL_Data_Neisseria_g: YEAR>
2004

> <ChEMBL_Data_Neisseria_g: JOURNAL>
J. Nat. Prod.

> <ChEMBL_Data_Neisseria_g: VOLUME>
67

> <ChEMBL_Data_Neisseria_g: FIRST_PAGE>
214

> <ChEMBL_Data_Neisseria_g: MIC_vs_Neisseria_microg_per_mL>
32

> <ALogP>
3.208

> <Active>
0

> <Molecular_Weight>
398.406

$$$$

Generated by Molecular Materials Informatics

 57 61  0  0  0  0  0  0  0  0999 V2000
   -2.4400    1.8547    0.0000 C   0  0  0  0  0  0  0  0  0  0  0  0
   -0.9777    1.5321    0.0000 C   0  0  0  0  0  0  0  0  0  0  0  0
   -0.5257    0.1045    0.0000 N   0  0  0  0  0  0  0  0  0  0  0  0
   -1.5362   -1.0007    0.0000 C   0  0  0  0  0  0  0  0  0  0  0  0
   -2.9985   -0.6782    0.0000 C   0  0  0  0  0  0  0  0  0  0  0  0
    0.9366   -0.2180    0.0000 C   0  0  0  0  0  0  0  0  0  0  0  0
    1.6352   -1.4041    0.0000 N   0  0  0  0  0  0  0  0  0  0  0  0
    3.0258   -1.4454    0.0000 C   0  0  0  0  0  0  0  0  0  0  0  0
    3.3482    0.0168    0.0000 C   0  0  0  0  0  0  0  0  0  0  0  0
    1.9570    0.5888    0.0000 S   0  0  0  0  0  0  0  0  0  0  0  0
    2.3103    1.1068    0.0000 C   0  0  0  0  0  0  0  0  0  0  0  0
    3.3184    2.3411    0.0000 N   0  0  0  0  0  0  0  0  0  0  0  0
    4.6466    3.1614    0.0000 C   0  0  0  0  0  0  0  0  0  0  0  0
    4.1360    4.5692    0.0000 O   0  0  0  0  0  0  0  0  0  0  0  0
    6.1985    3.3845    0.0000 C   0  0  0  0  0  0  0  0  0  0  0  0
    7.7483    3.1064    0.0000 C   0  0  0  0  0  0  0  0  0  0  0  0
    9.1556    2.3918    0.0000 C   0  0  0  0  0  0  0  0  0  0  0  0
   10.2695    1.3577    0.0000 C   0  0  0  0  0  0  0  0  0  0  0  0
   11.0667    0.0780    0.0000 C   0  0  0  0  0  0  0  0  0  0  0  0
   12.4306    0.6963    0.0000 C   0  0  0  0  0  0  0  0  0  0  0  0
   11.5027   -1.3619    0.0000 C   0  0  0  0  0  0  0  0  0  0  0  0
   12.9804   -1.1189    0.0000 O   0  0  0  0  0  0  0  0  0  0  0  0
   11.5508   -2.8645    0.0000 C   0  0  0  0  0  0  0  0  0  0  0  0
   13.0409   -3.0125    0.0000 C   0  0  0  0  0  0  0  0  0  0  0  0
   11.2083   -4.3284    0.0000 C   0  0  0  0  0  0  0  0  0  0  0  0
   12.6094   -4.8570    0.0000 O   0  0  0  0  0  0  0  0  0  0  0  0
   10.4986   -5.6539    0.0000 C   0  0  0  0  0  0  0  0  0  0  0  0
   11.7151   -6.5269    0.0000 C   0  0  0  0  0  0  0  0  0  0  0  0
    9.4701   -6.7502    0.0000 C   0  0  0  0  0  0  0  0  0  0  0  0
   10.4194   -7.9083    0.0000 O   0  0  0  0  0  0  0  0  0  0  0  0
   11.8972   -7.6652    0.0000 C   0  0  0  0  0  0  0  0  0  0  0  0
   12.4256   -6.2641    0.0000 O   0  0  0  0  0  0  0  0  0  0  0  0
   12.8465   -8.8235    0.0000 C   0  0  0  0  0  0  0  0  0  0  0  0
    8.1943   -7.5429    0.0000 C   0  0  0  0  0  0  0  0  0  0  0  0
    8.8123   -8.9068    0.0000 C   0  0  0  0  0  0  0  0  0  0  0  0
    6.7590   -7.9789    0.0000 C   0  0  0  0  0  0  0  0  0  0  0  0
    7.0072   -9.4557    0.0000 O   0  0  0  0  0  0  0  0  0  0  0  0
    5.8524  -10.4090    0.0000 C   0  0  0  0  0  0  0  0  0  0  0  0
    5.2630   -8.0357    0.0000 C   0  0  0  0  0  0  0  0  0  0  0  0
    3.8018   -7.7075    0.0000 C   0  0  0  0  0  0  0  0  0  0  0  0
    2.4597   -7.0345    0.0000 O   0  0  0  0  0  0  0  0  0  0  0  0
    1.3855   -5.9633    0.0000 C   0  0  0  0  0  0  0  0  0  0  0  0
    0.6313   -7.2572    0.0000 C   0  0  0  0  0  0  0  0  0  0  0  0
   -0.0752   -5.5564    0.0000 O   0  0  0  0  0  0  0  0  0  0  0  0
   -0.1463   -4.0219    0.0000 C   0  0  0  0  0  0  0  0  0  0  0  0
   -1.2997   -3.0361    0.0000 C   0  0  0  0  0  0  0  0  0  0  0  0
   -2.7160   -3.5225    0.0000 C   0  0  0  0  0  0  0  0  0  0  0  0
   -0.9933   -1.5391    0.0000 C   0  0  0  0  0  0  0  0  0  0  0  0
   -2.4884   -1.4554    0.0000 O   0  0  0  0  0  0  0  0  0  0  0  0
    0.4229   -0.9336    0.0000 C   0  0  0  0  0  0  0  0  0  0  0  0
    0.8531    0.5696    0.0000 C   0  0  0  0  0  0  0  0  0  0  0  0
   -0.2445    1.5884    0.0000 O   0  0  0  0  0  0  0  0  0  0  0  0
    1.5690   -1.9422    0.0000 C   0  0  0  0  0  0  0  0  0  0  0  0
    1.2802   -3.4886    0.0000 C   0  0  0  0  0  0  0  0  0  0  0  0
    2.2119   -4.6924    0.0000 C   0  0  0  0  0  0  0  0  0  0  0  0
    3.7081   -4.6307    0.0000 O   0  0  0  0  0  0  0  0  0  0  0  0
    6.2246    4.8818    0.0000 C   0  0  0  0  0  0  0  0  0  0  0  0
  1  2  1  0  0  0  0
  2  3  1  0  0  0  0
  3  4  1  0  0  0  0
  4  5  1  0  0  0  0
  3  6  1  0  0  0  0
  6  7  2  0  0  0  0
  7  8  1  0  0  0  0
  8  9  2  0  0  0  0
  9 10  1  0  0  0  0
  6 10  1  0  0  0  0
  9 11  1  0  0  0  0
 11 12  1  0  0  0  0
 12 13  1  0  0  0  0
 13 14  2  0  0  0  0
 13 15  1  0  0  0  0
 15 16  2  0  0  0  0
 16 17  1  0  0  0  0
 17 18  2  0  0  0  0
 18 19  1  0  0  0  0
 19 20  1  0  0  0  0
 19 21  1  0  0  0  0
 21 22  1  0  0  0  0
 21 23  1  0  0  0  0
 23 24  1  0  0  0  0
 23 25  1  0  0  0  0
 25 26  1  0  0  0  0
 25 27  1  0  0  0  0
 27 28  1  0  0  0  0
 27 29  1  0  0  0  0
 29 30  1  0  0  0  0
 30 31  1  0  0  0  0
 31 32  2  0  0  0  0
 31 33  1  0  0  0  0
 29 34  1  0  0  0  0
 34 35  1  0  0  0  0
 34 36  1  0  0  0  0
 36 37  1  0  0  0  0
 37 38  1  0  0  0  0
 36 39  1  0  0  0  0
 39 40  2  0  0  0  0
 40 41  1  0  0  0  0
 41 42  1  0  0  0  0
 42 43  1  0  0  0  0
 42 44  1  0  0  0  0
 44 45  1  0  0  0  0
 45 46  2  0  0  0  0
 46 47  1  0  0  0  0
 46 48  1  0  0  0  0
 48 49  1  0  0  0  0
 48 50  2  0  0  0  0
 50 51  1  0  0  0  0
 11 51  2  0  0  0  0
 51 52  1  0  0  0  0
 50 53  1  0  0  0  0
  8 53  1  0  0  0  0
 53 54  2  0  0  0  0
 45 54  1  0  0  0  0
 54 55  1  0  0  0  0
 42 55  1  0  0  0  0
 55 56  2  0  0  0  0
 15 57  1  0  0  0  0
M  END
> <Molecule Name>
CHEMBL36658

> <IUPAC>
(9E,19E,21Z)-28-(diethylamino)-2,15,17,32-tetrahydroxy-11-methoxy-3,7,12,14,16,18,22-heptamethyl-6,23-dioxo-8,33-dioxa-27-thia-24,29-diazapentacyclo[23.6.1.1,.0,.0,]tritriaconta
-1,3,5(31),9,19,21,25(32),26(30),28-nonaen-13-yl acetate

> <Collections>
Set2_NotListedAsBetaLactamResistant (mostly)
TrainingSet_Kleb_p_ALPerryman_JSF

> <ChEMBL_Data_Neisseria_g: NUM_RO5_VIOLATIONS>
3

> <ChEMBL_Data_Neisseria_g: Qualifier_for_MIC_Ng>
=

> <ChEMBL_Data_Neisseria_g: ASSAY_CHEMBLID>
CHEMBL750222

> <ChEMBL_Data_Neisseria_g: DESCRIPTION_of_Assay_Ng>
In vitro antibacterial activity of compound against Neisseria gonorrhoeae ISM 68/126

> <ChEMBL_Data_Neisseria_g: PUBMED_ID>
2329569

> <ChEMBL_Data_Neisseria_g: YEAR>
1990

> <ChEMBL_Data_Neisseria_g: JOURNAL>
J. Med. Chem.

> <ChEMBL_Data_Neisseria_g: VOLUME>
33

> <ChEMBL_Data_Neisseria_g: FIRST_PAGE>
1470

> <ChEMBL_Data_Neisseria_g: MIC_vs_Neisseria_microg_per_mL>
0.5

> <ALogP>
5.298

> <Active>
1

> <Molecular_Weight>
809.965

$$$$

Generated by Molecular Materials Informatics

 56 61  0  0  0  0  0  0  0  0999 V2000
   -0.9305    7.6276    0.0000 C   0  0  0  0  0  0  0  0  0  0  0  0
   -1.6791    6.3280    0.0000 O   0  0  0  0  0  0  0  0  0  0  0  0
   -0.9279    5.0298    0.0000 C   0  0  0  0  0  0  0  0  0  0  0  0
    0.4603    5.6181    0.0000 C   0  0  0  0  0  0  0  0  0  0  0  0
    1.9655    5.8595    0.0000 C   0  0  0  0  0  0  0  0  0  0  0  0
    3.5199    5.9013    0.0000 O   0  0  0  0  0  0  0  0  0  0  0  0
    4.7753    4.9607    0.0000 C   0  0  0  0  0  0  0  0  0  0  0  0
    6.2722    4.8694    0.0000 C   0  0  0  0  0  0  0  0  0  0  0  0
    3.4750    4.2135    0.0000 O   0  0  0  0  0  0  0  0  0  0  0  0
    3.6506    2.7357    0.0000 C   0  0  0  0  0  0  0  0  0  0  0  0
    2.5811    1.6440    0.0000 C   0  0  0  0  0  0  0  0  0  0  0  0
    1.1186    1.9771    0.0000 C   0  0  0  0  0  0  0  0  0  0  0  0
    3.0628    0.2239    0.0000 C   0  0  0  0  0  0  0  0  0  0  0  0
    2.0586   -0.8902    0.0000 O   0  0  0  0  0  0  0  0  0  0  0  0
    4.5458   -0.1133    0.0000 C   0  0  0  0  0  0  0  0  0  0  0  0
    4.9663   -1.5637    0.0000 C   0  0  0  0  0  0  0  0  0  0  0  0
    3.8888   -2.6071    0.0000 O   0  0  0  0  0  0  0  0  0  0  0  0
    6.3890   -2.0262    0.0000 C   0  0  0  0  0  0  0  0  0  0  0  0
    5.8419   -3.4994    0.0000 N   0  0  0  0  0  0  0  0  0  0  0  0
    4.8989   -4.7217    0.0000 C   0  0  0  0  0  0  0  0  0  0  0  0
    5.8737   -5.8618    0.0000 O   0  0  0  0  0  0  0  0  0  0  0  0
    3.5046   -5.4858    0.0000 C   0  0  0  0  0  0  0  0  0  0  0  0
    1.9471   -5.7527    0.0000 C   0  0  0  0  0  0  0  0  0  0  0  0
    0.3503   -5.5552    0.0000 C   0  0  0  0  0  0  0  0  0  0  0  0
   -1.0367   -4.9631    0.0000 C   0  0  0  0  0  0  0  0  0  0  0  0
   -2.2237   -4.0297    0.0000 C   0  0  0  0  0  0  0  0  0  0  0  0
   -3.2972   -5.0769    0.0000 C   0  0  0  0  0  0  0  0  0  0  0  0
   -3.1249   -2.8231    0.0000 C   0  0  0  0  0  0  0  0  0  0  0  0
   -4.4333   -3.5561    0.0000 O   0  0  0  0  0  0  0  0  0  0  0  0
   -3.6830   -1.4243    0.0000 C   0  0  0  0  0  0  0  0  0  0  0  0
   -5.1367   -1.7937    0.0000 C   0  0  0  0  0  0  0  0  0  0  0  0
   -3.8601    0.0712    0.0000 C   0  0  0  0  0  0  0  0  0  0  0  0
   -5.3600    0.0907    0.0000 O   0  0  0  0  0  0  0  0  0  0  0  0
   -3.6443    1.5613    0.0000 C   0  0  0  0  0  0  0  0  0  0  0  0
   -5.0880    1.9680    0.0000 C   0  0  0  0  0  0  0  0  0  0  0  0
   -3.0510    2.9441    0.0000 C   0  0  0  0  0  0  0  0  0  0  0  0
   -4.3406    3.7097    0.0000 O   0  0  0  0  0  0  0  0  0  0  0  0
   -2.1229    4.1245    0.0000 C   0  0  0  0  0  0  0  0  0  0  0  0
   -3.1739    5.1946    0.0000 C   0  0  0  0  0  0  0  0  0  0  0  0
    3.9984   -6.9021    0.0000 C   0  0  0  0  0  0  0  0  0  0  0  0
    7.4291   -0.9089    0.0000 C   0  0  0  0  0  0  0  0  0  0  0  0
    8.9242   -1.0274    0.0000 S   0  0  0  0  0  0  0  0  0  0  0  0
    9.4989    0.3581    0.0000 C   0  0  0  0  0  0  0  0  0  0  0  0
    8.3590    1.3328    0.0000 N   0  0  0  0  0  0  0  0  0  0  0  0
    7.0796    0.5497    0.0000 C   0  0  0  0  0  0  0  0  0  0  0  0
    5.6274    0.9850    0.0000 C   0  0  0  0  0  0  0  0  0  0  0  0
    5.1560    2.4961    0.0000 C   0  0  0  0  0  0  0  0  0  0  0  0
    5.8586    3.8678    0.0000 C   0  0  0  0  0  0  0  0  0  0  0  0
    7.3407    4.0976    0.0000 O   0  0  0  0  0  0  0  0  0  0  0  0
   10.9575    0.7075    0.0000 N   0  0  0  0  0  0  0  0  0  0  0  0
   11.3842    2.1454    0.0000 C   0  0  0  0  0  0  0  0  0  0  0  0
   12.8428    2.4949    0.0000 C   0  0  0  0  0  0  0  0  0  0  0  0
   13.8747    1.4062    0.0000 N   0  0  0  0  0  0  0  0  0  0  0  0
   15.3334    1.7556    0.0000 C   0  0  0  0  0  0  0  0  0  0  0  0
   13.4480   -0.0317    0.0000 C   0  0  0  0  0  0  0  0  0  0  0  0
   11.9894   -0.3811    0.0000 C   0  0  0  0  0  0  0  0  0  0  0  0
  1  2  1  0  0  0  0
  2  3  1  0  0  0  0
  3  4  1  0  0  0  0
  4  5  2  0  0  0  0
  5  6  1  0  0  0  0
  6  7  1  0  0  0  0
  7  8  1  0  0  0  0
  7  9  1  0  0  0  0
  9 10  1  0  0  0  0
 10 11  2  0  0  0  0
 11 12  1  0  0  0  0
 11 13  1  0  0  0  0
 13 14  1  0  0  0  0
 13 15  2  0  0  0  0
 15 16  1  0  0  0  0
 16 17  1  0  0  0  0
 16 18  2  0  0  0  0
 18 19  1  0  0  0  0
 19 20  1  0  0  0  0
 20 21  2  0  0  0  0
 20 22  1  0  0  0  0
 22 23  2  0  0  0  0
 23 24  1  0  0  0  0
 24 25  2  0  0  0  0
 25 26  1  0  0  0  0
 26 27  1  0  0  0  0
 26 28  1  0  0  0  0
 28 29  1  0  0  0  0
 28 30  1  0  0  0  0
 30 31  1  0  0  0  0
 30 32  1  0  0  0  0
 32 33  1  0  0  0  0
 32 34  1  0  0  0  0
 34 35  1  0  0  0  0
 34 36  1  0  0  0  0
 36 37  1  0  0  0  0
 36 38  1  0  0  0  0
  3 38  1  0  0  0  0
 38 39  1  0  0  0  0
 22 40  1  0  0  0  0
 18 41  1  0  0  0  0
 41 42  1  0  0  0  0
 42 43  1  0  0  0  0
 43 44  2  0  0  0  0
 44 45  1  0  0  0  0
 41 45  2  0  0  0  0
 45 46  1  0  0  0  0
 15 46  1  0  0  0  0
 46 47  2  0  0  0  0
 10 47  1  0  0  0  0
 47 48  1  0  0  0  0
  7 48  1  0  0  0  0
 48 49  2  0  0  0  0
 43 50  1  0  0  0  0
 50 51  1  0  0  0  0
 51 52  1  0  0  0  0
 52 53  1  0  0  0  0
 53 54  1  0  0  0  0
 53 55  1  0  0  0  0
 55 56  1  0  0  0  0
 50 56  1  0  0  0  0
M  END
> <Molecule Name>
CHEMBL35149

> <IUPAC>
(9E,19E,21Z)-2,13,15,17,32-pentahydroxy-11-methoxy-3,7,12,14,16,18,22-heptamethyl-28-(4-methylpiperazin-1-yl)-8,33-dioxa-27-thia-24,29-diazapentacyclo[23.6.1.1,.0,.0,]tritriacon
ta-1,3,5(31),9,19,21,25(32),26(30),28-nonaene-6,23-dione

> <Collections>
Set2_NotListedAsBetaLactamResistant (mostly)
TrainingSet_Kleb_p_ALPerryman_JSF

> <ChEMBL_Data_Neisseria_g: NUM_RO5_VIOLATIONS>
3

> <ChEMBL_Data_Neisseria_g: Qualifier_for_MIC_Ng>
=

> <ChEMBL_Data_Neisseria_g: ASSAY_CHEMBLID>
CHEMBL750222

> <ChEMBL_Data_Neisseria_g: DESCRIPTION_of_Assay_Ng>
In vitro antibacterial activity of compound against Neisseria gonorrhoeae ISM 68/126

> <ChEMBL_Data_Neisseria_g: PUBMED_ID>
2329569

> <ChEMBL_Data_Neisseria_g: YEAR>
1990

> <ChEMBL_Data_Neisseria_g: JOURNAL>
J. Med. Chem.

> <ChEMBL_Data_Neisseria_g: VOLUME>
33

> <ChEMBL_Data_Neisseria_g: FIRST_PAGE>
1470

> <ChEMBL_Data_Neisseria_g: MIC_vs_Neisseria_microg_per_mL>
1

> <ALogP>
4.179

> <Active>
1

> <Molecular_Weight>
794.953

$$$$

Generated by Molecular Materials Informatics

 57 62  0  0  0  0  0  0  0  0999 V2000
   -0.1353    7.6277    0.0000 C   0  0  0  0  0  0  0  0  0  0  0  0
   -0.8839    6.3281    0.0000 O   0  0  0  0  0  0  0  0  0  0  0  0
   -0.1327    5.0298    0.0000 C   0  0  0  0  0  0  0  0  0  0  0  0
    1.2556    5.6182    0.0000 C   0  0  0  0  0  0  0  0  0  0  0  0
    2.7608    5.8596    0.0000 C   0  0  0  0  0  0  0  0  0  0  0  0
    4.3152    5.9014    0.0000 O   0  0  0  0  0  0  0  0  0  0  0  0
    5.5706    4.9607    0.0000 C   0  0  0  0  0  0  0  0  0  0  0  0
    7.0676    4.8695    0.0000 C   0  0  0  0  0  0  0  0  0  0  0  0
    4.2703    4.2135    0.0000 O   0  0  0  0  0  0  0  0  0  0  0  0
    4.4459    2.7358    0.0000 C   0  0  0  0  0  0  0  0  0  0  0  0
    3.3764    1.6440    0.0000 C   0  0  0  0  0  0  0  0  0  0  0  0
    1.9139    1.9771    0.0000 C   0  0  0  0  0  0  0  0  0  0  0  0
    3.8581    0.2239    0.0000 C   0  0  0  0  0  0  0  0  0  0  0  0
    2.8538   -0.8902    0.0000 O   0  0  0  0  0  0  0  0  0  0  0  0
    5.3411   -0.1133    0.0000 C   0  0  0  0  0  0  0  0  0  0  0  0
    5.7617   -1.5638    0.0000 C   0  0  0  0  0  0  0  0  0  0  0  0
    4.6841   -2.6072    0.0000 O   0  0  0  0  0  0  0  0  0  0  0  0
    7.1843   -2.0263    0.0000 C   0  0  0  0  0  0  0  0  0  0  0  0
    6.6373   -3.4995    0.0000 N   0  0  0  0  0  0  0  0  0  0  0  0
    5.6942   -4.7218    0.0000 C   0  0  0  0  0  0  0  0  0  0  0  0
    6.6691   -5.8619    0.0000 O   0  0  0  0  0  0  0  0  0  0  0  0
    4.2999   -5.4859    0.0000 C   0  0  0  0  0  0  0  0  0  0  0  0
    2.7424   -5.7528    0.0000 C   0  0  0  0  0  0  0  0  0  0  0  0
    1.1456   -5.5554    0.0000 C   0  0  0  0  0  0  0  0  0  0  0  0
   -0.2414   -4.9632    0.0000 C   0  0  0  0  0  0  0  0  0  0  0  0
   -1.4284   -4.0298    0.0000 C   0  0  0  0  0  0  0  0  0  0  0  0
   -2.5020   -5.0770    0.0000 C   0  0  0  0  0  0  0  0  0  0  0  0
   -2.3297   -2.8232    0.0000 C   0  0  0  0  0  0  0  0  0  0  0  0
   -3.6381   -3.5562    0.0000 O   0  0  0  0  0  0  0  0  0  0  0  0
   -2.8878   -1.4243    0.0000 C   0  0  0  0  0  0  0  0  0  0  0  0
   -4.3415   -1.7938    0.0000 C   0  0  0  0  0  0  0  0  0  0  0  0
   -3.0649    0.0712    0.0000 C   0  0  0  0  0  0  0  0  0  0  0  0
   -4.5648    0.0907    0.0000 O   0  0  0  0  0  0  0  0  0  0  0  0
   -2.8491    1.5613    0.0000 C   0  0  0  0  0  0  0  0  0  0  0  0
   -4.2928    1.9680    0.0000 C   0  0  0  0  0  0  0  0  0  0  0  0
   -2.2559    2.9441    0.0000 C   0  0  0  0  0  0  0  0  0  0  0  0
   -3.5454    3.7097    0.0000 O   0  0  0  0  0  0  0  0  0  0  0  0
   -4.8535    2.9758    0.0000 C   0  0  0  0  0  0  0  0  0  0  0  0
   -6.1433    3.7415    0.0000 O   0  0  0  0  0  0  0  0  0  0  0  0
   -4.8717    1.4759    0.0000 C   0  0  0  0  0  0  0  0  0  0  0  0
   -1.3277    4.1246    0.0000 C   0  0  0  0  0  0  0  0  0  0  0  0
   -2.3788    5.1947    0.0000 C   0  0  0  0  0  0  0  0  0  0  0  0
    4.7937   -6.9022    0.0000 C   0  0  0  0  0  0  0  0  0  0  0  0
    8.2244   -0.9089    0.0000 C   0  0  0  0  0  0  0  0  0  0  0  0
    9.7196   -1.0274    0.0000 S   0  0  0  0  0  0  0  0  0  0  0  0
   10.2943    0.3581    0.0000 C   0  0  0  0  0  0  0  0  0  0  0  0
    9.1544    1.3328    0.0000 N   0  0  0  0  0  0  0  0  0  0  0  0
    7.8750    0.5497    0.0000 C   0  0  0  0  0  0  0  0  0  0  0  0
    6.4227    0.9850    0.0000 C   0  0  0  0  0  0  0  0  0  0  0  0
    5.9513    2.4962    0.0000 C   0  0  0  0  0  0  0  0  0  0  0  0
    6.6540    3.8679    0.0000 C   0  0  0  0  0  0  0  0  0  0  0  0
    8.1361    4.0977    0.0000 O   0  0  0  0  0  0  0  0  0  0  0  0
   11.7529    0.7075    0.0000 N   0  0  0  0  0  0  0  0  0  0  0  0
   12.3276    2.0929    0.0000 C   0  0  0  0  0  0  0  0  0  0  0  0
   13.8228    1.9746    0.0000 C   0  0  0  0  0  0  0  0  0  0  0  0
   14.1723    0.5159    0.0000 C   0  0  0  0  0  0  0  0  0  0  0  0
   12.8931   -0.2671    0.0000 C   0  0  0  0  0  0  0  0  0  0  0  0
  1  2  1  0  0  0  0
  2  3  1  0  0  0  0
  3  4  1  0  0  0  0
  4  5  2  0  0  0  0
  5  6  1  0  0  0  0
  6  7  1  0  0  0  0
  7  8  1  0  0  0  0
  7  9  1  0  0  0  0
  9 10  1  0  0  0  0
 10 11  2  0  0  0  0
 11 12  1  0  0  0  0
 11 13  1  0  0  0  0
 13 14  1  0  0  0  0
 13 15  2  0  0  0  0
 15 16  1  0  0  0  0
 16 17  1  0  0  0  0
 16 18  2  0  0  0  0
 18 19  1  0  0  0  0
 19 20  1  0  0  0  0
 20 21  2  0  0  0  0
 20 22  1  0  0  0  0
 22 23  2  0  0  0  0
 23 24  1  0  0  0  0
 24 25  2  0  0  0  0
 25 26  1  0  0  0  0
 26 27  1  0  0  0  0
 26 28  1  0  0  0  0
 28 29  1  0  0  0  0
 28 30  1  0  0  0  0
 30 31  1  0  0  0  0
 30 32  1  0  0  0  0
 32 33  1  0  0  0  0
 32 34  1  0  0  0  0
 34 35  1  0  0  0  0
 34 36  1  0  0  0  0
 36 37  1  0  0  0  0
 37 38  1  0  0  0  0
 38 39  2  0  0  0  0
 38 40  1  0  0  0  0
 36 41  1  0  0  0  0
  3 41  1  0  0  0  0
 41 42  1  0  0  0  0
 22 43  1  0  0  0  0
 18 44  1  0  0  0  0
 44 45  1  0  0  0  0
 45 46  1  0  0  0  0
 46 47  2  0  0  0  0
 47 48  1  0  0  0  0
 44 48  2  0  0  0  0
 48 49  1  0  0  0  0
 15 49  1  0  0  0  0
 49 50  2  0  0  0  0
 10 50  1  0  0  0  0
 50 51  1  0  0  0  0
  7 51  1  0  0  0  0
 51 52  2  0  0  0  0
 46 53  1  0  0  0  0
 53 54  1  0  0  0  0
 54 55  1  0  0  0  0
 55 56  1  0  0  0  0
 56 57  1  0  0  0  0
 53 57  1  0  0  0  0
M  END
> <Molecule Name>
CHEMBL35037

> <IUPAC>
(9E,19E,21Z)-2,15,17,32-tetrahydroxy-11-methoxy-3,7,12,14,16,18,22-heptamethyl-6,23-dioxo-28-(pyrrolidin-1-yl)-8,33-dioxa-27-thia-24,29-diazapentacyclo[23.6.1.1,.0,.0,]tritriaco
nta-1,3,5(31),9,19,21,25(32),26(30),28-nonaen-13-yl acetate

> <Collections>
Set2_NotListedAsBetaLactamResistant (mostly)
TrainingSet_Kleb_p_ALPerryman_JSF

> <ChEMBL_Data_Neisseria_g: NUM_RO5_VIOLATIONS>
3

> <ChEMBL_Data_Neisseria_g: Qualifier_for_MIC_Ng>
=

> <ChEMBL_Data_Neisseria_g: ASSAY_CHEMBLID>
CHEMBL750222

> <ChEMBL_Data_Neisseria_g: DESCRIPTION_of_Assay_Ng>
In vitro antibacterial activity of compound against Neisseria gonorrhoeae ISM 68/126

> <ChEMBL_Data_Neisseria_g: PUBMED_ID>
2329569

> <ChEMBL_Data_Neisseria_g: YEAR>
1990

> <ChEMBL_Data_Neisseria_g: JOURNAL>
J. Med. Chem.

> <ChEMBL_Data_Neisseria_g: VOLUME>
33

> <ChEMBL_Data_Neisseria_g: FIRST_PAGE>
1470

> <ChEMBL_Data_Neisseria_g: MIC_vs_Neisseria_microg_per_mL>
0.5

> <ALogP>
5.062

> <Active>
1

> <Molecular_Weight>
807.949

$$$$

Generated by Molecular Materials Informatics

 61 66  0  0  0  0  0  0  0  0999 V2000
   -0.3480    7.7777    0.0000 C   0  0  0  0  0  0  0  0  0  0  0  0
   -1.1836    6.5321    0.0000 O   0  0  0  0  0  0  0  0  0  0  0  0
   -0.5227    5.1856    0.0000 C   0  0  0  0  0  0  0  0  0  0  0  0
    0.9025    5.6777    0.0000 C   0  0  0  0  0  0  0  0  0  0  0  0
    2.4206    5.8159    0.0000 C   0  0  0  0  0  0  0  0  0  0  0  0
    3.9743    5.7516    0.0000 O   0  0  0  0  0  0  0  0  0  0  0  0
    5.1625    4.7272    0.0000 C   0  0  0  0  0  0  0  0  0  0  0  0
    6.6499    4.5342    0.0000 C   0  0  0  0  0  0  0  0  0  0  0  0
    3.8142    4.0707    0.0000 O   0  0  0  0  0  0  0  0  0  0  0  0
    3.8887    2.5843    0.0000 C   0  0  0  0  0  0  0  0  0  0  0  0
    2.7471    1.5681    0.0000 C   0  0  0  0  0  0  0  0  0  0  0  0
    1.3108    2.0003    0.0000 C   0  0  0  0  0  0  0  0  0  0  0  0
    3.1309    0.1184    0.0000 C   0  0  0  0  0  0  0  0  0  0  0  0
    2.0528   -0.9245    0.0000 O   0  0  0  0  0  0  0  0  0  0  0  0
    4.5874   -0.3193    0.0000 C   0  0  0  0  0  0  0  0  0  0  0  0
    4.9079   -1.7950    0.0000 C   0  0  0  0  0  0  0  0  0  0  0  0
    6.2957   -2.3537    0.0000 C   0  0  0  0  0  0  0  0  0  0  0  0
    5.6494   -3.7862    0.0000 N   0  0  0  0  0  0  0  0  0  0  0  0
    4.6250   -4.9412    0.0000 C   0  0  0  0  0  0  0  0  0  0  0  0
    5.5197   -6.1452    0.0000 O   0  0  0  0  0  0  0  0  0  0  0  0
    3.1818   -5.6083    0.0000 C   0  0  0  0  0  0  0  0  0  0  0  0
    1.6097   -5.7685    0.0000 C   0  0  0  0  0  0  0  0  0  0  0  0
    0.0300   -5.4623    0.0000 C   0  0  0  0  0  0  0  0  0  0  0  0
   -1.3132   -4.7769    0.0000 C   0  0  0  0  0  0  0  0  0  0  0  0
   -2.4337   -3.7646    0.0000 C   0  0  0  0  0  0  0  0  0  0  0  0
   -3.5766   -4.7361    0.0000 C   0  0  0  0  0  0  0  0  0  0  0  0
   -3.2506   -2.4993    0.0000 C   0  0  0  0  0  0  0  0  0  0  0  0
   -4.6062   -3.1413    0.0000 O   0  0  0  0  0  0  0  0  0  0  0  0
   -3.7120   -1.0656    0.0000 C   0  0  0  0  0  0  0  0  0  0  0  0
   -5.1876   -1.3350    0.0000 C   0  0  0  0  0  0  0  0  0  0  0  0
   -3.7868    0.4385    0.0000 C   0  0  0  0  0  0  0  0  0  0  0  0
   -5.2818    0.5603    0.0000 O   0  0  0  0  0  0  0  0  0  0  0  0
   -3.4697    1.9105    0.0000 C   0  0  0  0  0  0  0  0  0  0  0  0
   -4.8824    2.4148    0.0000 C   0  0  0  0  0  0  0  0  0  0  0  0
   -2.7834    3.2495    0.0000 C   0  0  0  0  0  0  0  0  0  0  0  0
   -4.0179    4.1015    0.0000 O   0  0  0  0  0  0  0  0  0  0  0  0
   -5.3729    3.4584    0.0000 C   0  0  0  0  0  0  0  0  0  0  0  0
   -6.6074    4.3104    0.0000 O   0  0  0  0  0  0  0  0  0  0  0  0
   -5.4934    1.9634    0.0000 C   0  0  0  0  0  0  0  0  0  0  0  0
   -1.7769    4.3640    0.0000 C   0  0  0  0  0  0  0  0  0  0  0  0
   -2.7525    5.5034    0.0000 C   0  0  0  0  0  0  0  0  0  0  0  0
    3.5778   -7.0550    0.0000 C   0  0  0  0  0  0  0  0  0  0  0  0
    7.4096   -1.3098    0.0000 C   0  0  0  0  0  0  0  0  0  0  0  0
    8.8932   -1.5301    0.0000 N   0  0  0  0  0  0  0  0  0  0  0  0
    9.5612   -0.1871    0.0000 C   0  0  0  0  0  0  0  0  0  0  0  0
   10.0852    1.2185    0.0000 C   0  0  0  0  0  0  0  0  0  0  0  0
   11.5642    1.4674    0.0000 C   0  0  0  0  0  0  0  0  0  0  0  0
   12.5194    0.3111    0.0000 N   0  0  0  0  0  0  0  0  0  0  0  0
   13.9986    0.5602    0.0000 C   0  0  0  0  0  0  0  0  0  0  0  0
   14.9538   -0.5963    0.0000 C   0  0  0  0  0  0  0  0  0  0  0  0
   16.4329   -0.3473    0.0000 C   0  0  0  0  0  0  0  0  0  0  0  0
   14.4299   -2.0019    0.0000 C   0  0  0  0  0  0  0  0  0  0  0  0
   11.9956   -1.0945    0.0000 C   0  0  0  0  0  0  0  0  0  0  0  0
   10.5164   -1.3434    0.0000 C   0  0  0  0  0  0  0  0  0  0  0  0
    8.4903    0.8632    0.0000 N   0  0  0  0  0  0  0  0  0  0  0  0
    7.1606    0.1693    0.0000 C   0  0  0  0  0  0  0  0  0  0  0  0
    5.7414    0.7027    0.0000 C   0  0  0  0  0  0  0  0  0  0  0  0
    5.3741    2.2424    0.0000 C   0  0  0  0  0  0  0  0  0  0  0  0
    6.1688    3.5631    0.0000 C   0  0  0  0  0  0  0  0  0  0  0  0
    7.6633    3.6911    0.0000 O   0  0  0  0  0  0  0  0  0  0  0  0
    3.7616   -2.7624    0.0000 O   0  0  0  0  0  0  0  0  0  0  0  0
  1  2  1  0  0  0  0
  2  3  1  0  0  0  0
  3  4  1  0  0  0  0
  4  5  2  0  0  0  0
  5  6  1  0  0  0  0
  6  7  1  0  0  0  0
  7  8  1  0  0  0  0
  7  9  1  0  0  0  0
  9 10  1  0  0  0  0
 10 11  2  0  0  0  0
 11 12  1  0  0  0  0
 11 13  1  0  0  0  0
 13 14  1  0  0  0  0
 13 15  2  0  0  0  0
 15 16  1  0  0  0  0
 16 17  2  0  0  0  0
 17 18  1  0  0  0  0
 18 19  1  0  0  0  0
 19 20  2  0  0  0  0
 19 21  1  0  0  0  0
 21 22  2  0  0  0  0
 22 23  1  0  0  0  0
 23 24  2  0  0  0  0
 24 25  1  0  0  0  0
 25 26  1  0  0  0  0
 25 27  1  0  0  0  0
 27 28  1  0  0  0  0
 27 29  1  0  0  0  0
 29 30  1  0  0  0  0
 29 31  1  0  0  0  0
 31 32  1  0  0  0  0
 31 33  1  0  0  0  0
 33 34  1  0  0  0  0
 33 35  1  0  0  0  0
 35 36  1  0  0  0  0
 36 37  1  0  0  0  0
 37 38  2  0  0  0  0
 37 39  1  0  0  0  0
 35 40  1  0  0  0  0
  3 40  1  0  0  0  0
 40 41  1  0  0  0  0
 21 42  1  0  0  0  0
 17 43  1  0  0  0  0
 43 44  2  0  0  0  0
 44 45  1  0  0  0  0
 45 46  1  0  0  0  0
 46 47  1  0  0  0  0
 47 48  1  0  0  0  0
 48 49  1  0  0  0  0
 49 50  1  0  0  0  0
 50 51  1  0  0  0  0
 50 52  1  0  0  0  0
 48 53  1  0  0  0  0
 53 54  1  0  0  0  0
 45 54  1  0  0  0  0
 45 55  1  0  0  0  0
 55 56  2  0  0  0  0
 43 56  1  0  0  0  0
 56 57  1  0  0  0  0
 15 57  1  0  0  0  0
 57 58  2  0  0  0  0
 10 58  1  0  0  0  0
 58 59  1  0  0  0  0
  7 59  1  0  0  0  0
 59 60  2  0  0  0  0
 16 61  1  0  0  0  0
M  END
> <Molecule Name>
CHEMBL34588

> <IUPAC>
(9E,19E,21Z)-2,15,17,32-tetrahydroxy-11-methoxy-3,7,12,14,16,18,22-heptamethyl-1'-(2-methylpropyl)-6,23-dioxo-8,33-dioxa-24,27,29-triazaspiro[pentacyclo[23.6.1.1,.0,.0,]tritriac
ontane-28,4'-piperidine]-1(31),2,4,9,19,21,25(32),26,29-nonaen-13-yl acetate

> <Collections>
Set2_NotListedAsBetaLactamResistant (mostly)
TrainingSet_Kleb_p_ALPerryman_JSF

> <ChEMBL_Data_Neisseria_g: NUM_RO5_VIOLATIONS>
2

> <ChEMBL_Data_Neisseria_g: Qualifier_for_MIC_Ng>
=

> <ChEMBL_Data_Neisseria_g: ASSAY_CHEMBLID>
CHEMBL750222

> <ChEMBL_Data_Neisseria_g: DESCRIPTION_of_Assay_Ng>
In vitro antibacterial activity of compound against Neisseria gonorrhoeae ISM 68/126

> <ChEMBL_Data_Neisseria_g: PUBMED_ID>
2329569

> <ChEMBL_Data_Neisseria_g: YEAR>
1990

> <ChEMBL_Data_Neisseria_g: JOURNAL>
J. Med. Chem.

> <ChEMBL_Data_Neisseria_g: VOLUME>
33

> <ChEMBL_Data_Neisseria_g: FIRST_PAGE>
1470

> <ChEMBL_Data_Neisseria_g: MIC_vs_Neisseria_microg_per_mL>
0.5

> <ALogP>
4.41

> <Active>
1

> <Molecular_Weight>
847.005

$$$$

Generated by Molecular Materials Informatics

 64 70  0  0  0  0  0  0  0  0999 V2000
   -1.2320    7.6279    0.0000 C   0  0  0  0  0  0  0  0  0  0  0  0
   -1.9807    6.3283    0.0000 O   0  0  0  0  0  0  0  0  0  0  0  0
   -1.2294    5.0300    0.0000 C   0  0  0  0  0  0  0  0  0  0  0  0
    0.1589    5.6183    0.0000 C   0  0  0  0  0  0  0  0  0  0  0  0
    1.6641    5.8597    0.0000 C   0  0  0  0  0  0  0  0  0  0  0  0
    3.2186    5.9016    0.0000 O   0  0  0  0  0  0  0  0  0  0  0  0
    4.4740    4.9609    0.0000 C   0  0  0  0  0  0  0  0  0  0  0  0
    5.9711    4.8696    0.0000 C   0  0  0  0  0  0  0  0  0  0  0  0
    3.1737    4.2136    0.0000 O   0  0  0  0  0  0  0  0  0  0  0  0
    3.3493    2.7359    0.0000 C   0  0  0  0  0  0  0  0  0  0  0  0
    2.2797    1.6441    0.0000 C   0  0  0  0  0  0  0  0  0  0  0  0
    0.8172    1.9771    0.0000 C   0  0  0  0  0  0  0  0  0  0  0  0
    2.7615    0.2239    0.0000 C   0  0  0  0  0  0  0  0  0  0  0  0
    1.7572   -0.8902    0.0000 O   0  0  0  0  0  0  0  0  0  0  0  0
    4.2446   -0.1133    0.0000 C   0  0  0  0  0  0  0  0  0  0  0  0
    4.6651   -1.5638    0.0000 C   0  0  0  0  0  0  0  0  0  0  0  0
    3.5875   -2.6072    0.0000 O   0  0  0  0  0  0  0  0  0  0  0  0
    6.0878   -2.0264    0.0000 C   0  0  0  0  0  0  0  0  0  0  0  0
    5.5407   -3.4996    0.0000 N   0  0  0  0  0  0  0  0  0  0  0  0
    4.5977   -4.7219    0.0000 C   0  0  0  0  0  0  0  0  0  0  0  0
    5.5725   -5.8620    0.0000 O   0  0  0  0  0  0  0  0  0  0  0  0
    3.2033   -5.4861    0.0000 C   0  0  0  0  0  0  0  0  0  0  0  0
    1.6458   -5.7530    0.0000 C   0  0  0  0  0  0  0  0  0  0  0  0
    0.0489   -5.5555    0.0000 C   0  0  0  0  0  0  0  0  0  0  0  0
   -1.3381   -4.9633    0.0000 C   0  0  0  0  0  0  0  0  0  0  0  0
   -2.5252   -4.0299    0.0000 C   0  0  0  0  0  0  0  0  0  0  0  0
   -3.5988   -5.0772    0.0000 C   0  0  0  0  0  0  0  0  0  0  0  0
   -3.4264   -2.8232    0.0000 C   0  0  0  0  0  0  0  0  0  0  0  0
   -4.7349   -3.5563    0.0000 O   0  0  0  0  0  0  0  0  0  0  0  0
   -3.9846   -1.4244    0.0000 C   0  0  0  0  0  0  0  0  0  0  0  0
   -5.4384   -1.7938    0.0000 C   0  0  0  0  0  0  0  0  0  0  0  0
   -4.1617    0.0712    0.0000 C   0  0  0  0  0  0  0  0  0  0  0  0
   -5.6616    0.0907    0.0000 O   0  0  0  0  0  0  0  0  0  0  0  0
   -3.9459    1.5613    0.0000 C   0  0  0  0  0  0  0  0  0  0  0  0
   -5.3896    1.9681    0.0000 C   0  0  0  0  0  0  0  0  0  0  0  0
   -3.3526    2.9442    0.0000 C   0  0  0  0  0  0  0  0  0  0  0  0
   -4.6422    3.7098    0.0000 O   0  0  0  0  0  0  0  0  0  0  0  0
   -5.9504    2.9758    0.0000 C   0  0  0  0  0  0  0  0  0  0  0  0
   -7.2401    3.7416    0.0000 O   0  0  0  0  0  0  0  0  0  0  0  0
   -5.9685    1.4759    0.0000 C   0  0  0  0  0  0  0  0  0  0  0  0
   -2.4245    4.1247    0.0000 C   0  0  0  0  0  0  0  0  0  0  0  0
   -3.4755    5.1949    0.0000 C   0  0  0  0  0  0  0  0  0  0  0  0
    3.6971   -6.9024    0.0000 C   0  0  0  0  0  0  0  0  0  0  0  0
    7.1279   -0.9089    0.0000 C   0  0  0  0  0  0  0  0  0  0  0  0
    8.6232   -1.0275    0.0000 S   0  0  0  0  0  0  0  0  0  0  0  0
    9.1979    0.3581    0.0000 C   0  0  0  0  0  0  0  0  0  0  0  0
    8.0579    1.3328    0.0000 N   0  0  0  0  0  0  0  0  0  0  0  0
    6.7785    0.5497    0.0000 C   0  0  0  0  0  0  0  0  0  0  0  0
    5.3262    0.9850    0.0000 C   0  0  0  0  0  0  0  0  0  0  0  0
    4.8547    2.4962    0.0000 C   0  0  0  0  0  0  0  0  0  0  0  0
    5.5574    3.8680    0.0000 C   0  0  0  0  0  0  0  0  0  0  0  0
    7.0396    4.0978    0.0000 O   0  0  0  0  0  0  0  0  0  0  0  0
   10.6565    0.7076    0.0000 N   0  0  0  0  0  0  0  0  0  0  0  0
   11.0833    2.1455    0.0000 C   0  0  0  0  0  0  0  0  0  0  0  0
   12.5419    2.4950    0.0000 C   0  0  0  0  0  0  0  0  0  0  0  0
   13.5739    1.4063    0.0000 N   0  0  0  0  0  0  0  0  0  0  0  0
   13.1472   -0.0317    0.0000 C   0  0  0  0  0  0  0  0  0  0  0  0
   11.6885   -0.3811    0.0000 C   0  0  0  0  0  0  0  0  0  0  0  0
   15.0326    1.7557    0.0000 C   0  0  0  0  0  0  0  0  0  0  0  0
   15.4593    3.1937    0.0000 C   0  0  0  0  0  0  0  0  0  0  0  0
   16.9180    3.5431    0.0000 C   0  0  0  0  0  0  0  0  0  0  0  0
   17.9499    2.4546    0.0000 C   0  0  0  0  0  0  0  0  0  0  0  0
   17.5232    1.0166    0.0000 C   0  0  0  0  0  0  0  0  0  0  0  0
   16.0645    0.6672    0.0000 C   0  0  0  0  0  0  0  0  0  0  0  0
  1  2  1  0  0  0  0
  2  3  1  0  0  0  0
  3  4  1  0  0  0  0
  4  5  2  0  0  0  0
  5  6  1  0  0  0  0
  6  7  1  0  0  0  0
  7  8  1  0  0  0  0
  7  9  1  0  0  0  0
  9 10  1  0  0  0  0
 10 11  2  0  0  0  0
 11 12  1  0  0  0  0
 11 13  1  0  0  0  0
 13 14  1  0  0  0  0
 13 15  2  0  0  0  0
 15 16  1  0  0  0  0
 16 17  1  0  0  0  0
 16 18  2  0  0  0  0
 18 19  1  0  0  0  0
 19 20  1  0  0  0  0
 20 21  2  0  0  0  0
 20 22  1  0  0  0  0
 22 23  2  0  0  0  0
 23 24  1  0  0  0  0
 24 25  2  0  0  0  0
 25 26  1  0  0  0  0
 26 27  1  0  0  0  0
 26 28  1  0  0  0  0
 28 29  1  0  0  0  0
 28 30  1  0  0  0  0
 30 31  1  0  0  0  0
 30 32  1  0  0  0  0
 32 33  1  0  0  0  0
 32 34  1  0  0  0  0
 34 35  1  0  0  0  0
 34 36  1  0  0  0  0
 36 37  1  0  0  0  0
 37 38  1  0  0  0  0
 38 39  2  0  0  0  0
 38 40  1  0  0  0  0
 36 41  1  0  0  0  0
  3 41  1  0  0  0  0
 41 42  1  0  0  0  0
 22 43  1  0  0  0  0
 18 44  1  0  0  0  0
 44 45  1  0  0  0  0
 45 46  1  0  0  0  0
 46 47  2  0  0  0  0
 47 48  1  0  0  0  0
 44 48  2  0  0  0  0
 48 49  1  0  0  0  0
 15 49  1  0  0  0  0
 49 50  2  0  0  0  0
 10 50  1  0  0  0  0
 50 51  1  0  0  0  0
  7 51  1  0  0  0  0
 51 52  2  0  0  0  0
 46 53  1  0  0  0  0
 53 54  1  0  0  0  0
 54 55  1  0  0  0  0
 55 56  1  0  0  0  0
 56 57  1  0  0  0  0
 57 58  1  0  0  0  0
 53 58  1  0  0  0  0
 56 59  1  0  0  0  0
 59 60  2  0  0  0  0
 60 61  1  0  0  0  0
 61 62  2  0  0  0  0
 62 63  1  0  0  0  0
 63 64  2  0  0  0  0
 59 64  1  0  0  0  0
M  END
> <Molecule Name>
CHEMBL34255

> <IUPAC>
(9E,19E,21Z)-2,15,17,32-tetrahydroxy-11-methoxy-3,7,12,14,16,18,22-heptamethyl-6,23-dioxo-28-(4-phenylpiperazin-1-yl)-8,33-dioxa-27-thia-24,29-diazapentacyclo[23.6.1.1,.0,.0,]tr
itriaconta-1,3,5(31),9,19,21,25(32),26(30),28-nonaen-13-yl acetate

> <Collections>
Set2_NotListedAsBetaLactamResistant (mostly)
TrainingSet_Kleb_p_ALPerryman_JSF

> <ChEMBL_Data_Neisseria_g: NUM_RO5_VIOLATIONS>
3

> <ChEMBL_Data_Neisseria_g: Qualifier_for_MIC_Ng>
=

> <ChEMBL_Data_Neisseria_g: ASSAY_CHEMBLID>
CHEMBL750222

> <ChEMBL_Data_Neisseria_g: DESCRIPTION_of_Assay_Ng>
In vitro antibacterial activity of compound against Neisseria gonorrhoeae ISM 68/126

> <ChEMBL_Data_Neisseria_g: PUBMED_ID>
2329569

> <ChEMBL_Data_Neisseria_g: YEAR>
1990

> <ChEMBL_Data_Neisseria_g: JOURNAL>
J. Med. Chem.

> <ChEMBL_Data_Neisseria_g: VOLUME>
33

> <ChEMBL_Data_Neisseria_g: FIRST_PAGE>
1470

> <ChEMBL_Data_Neisseria_g: MIC_vs_Neisseria_microg_per_mL>
0.125

> <ALogP>
6.23

> <Active>
1

> <Molecular_Weight>
899.059

$$$$

Generated by Molecular Materials Informatics

 65 71  0  0  0  0  0  0  0  0999 V2000
   -1.3682    7.6279    0.0000 C   0  0  0  0  0  0  0  0  0  0  0  0
   -2.1169    6.3283    0.0000 O   0  0  0  0  0  0  0  0  0  0  0  0
   -1.3656    5.0300    0.0000 C   0  0  0  0  0  0  0  0  0  0  0  0
    0.0227    5.6183    0.0000 C   0  0  0  0  0  0  0  0  0  0  0  0
    1.5279    5.8598    0.0000 C   0  0  0  0  0  0  0  0  0  0  0  0
    3.0824    5.9016    0.0000 O   0  0  0  0  0  0  0  0  0  0  0  0
    4.3378    4.9609    0.0000 C   0  0  0  0  0  0  0  0  0  0  0  0
    5.8349    4.8696    0.0000 C   0  0  0  0  0  0  0  0  0  0  0  0
    3.0375    4.2136    0.0000 O   0  0  0  0  0  0  0  0  0  0  0  0
    3.2132    2.7359    0.0000 C   0  0  0  0  0  0  0  0  0  0  0  0
    2.1436    1.6441    0.0000 C   0  0  0  0  0  0  0  0  0  0  0  0
    0.6811    1.9772    0.0000 C   0  0  0  0  0  0  0  0  0  0  0  0
    2.6254    0.2239    0.0000 C   0  0  0  0  0  0  0  0  0  0  0  0
    1.6210   -0.8902    0.0000 O   0  0  0  0  0  0  0  0  0  0  0  0
    4.1084   -0.1133    0.0000 C   0  0  0  0  0  0  0  0  0  0  0  0
    4.5289   -1.5638    0.0000 C   0  0  0  0  0  0  0  0  0  0  0  0
    3.4513   -2.6072    0.0000 O   0  0  0  0  0  0  0  0  0  0  0  0
    5.9516   -2.0264    0.0000 C   0  0  0  0  0  0  0  0  0  0  0  0
    5.4045   -3.4996    0.0000 N   0  0  0  0  0  0  0  0  0  0  0  0
    4.4615   -4.7219    0.0000 C   0  0  0  0  0  0  0  0  0  0  0  0
    5.4364   -5.8620    0.0000 O   0  0  0  0  0  0  0  0  0  0  0  0
    3.0672   -5.4861    0.0000 C   0  0  0  0  0  0  0  0  0  0  0  0
    1.5096   -5.7530    0.0000 C   0  0  0  0  0  0  0  0  0  0  0  0
   -0.0873   -5.5555    0.0000 C   0  0  0  0  0  0  0  0  0  0  0  0
   -1.4743   -4.9633    0.0000 C   0  0  0  0  0  0  0  0  0  0  0  0
   -2.6614   -4.0299    0.0000 C   0  0  0  0  0  0  0  0  0  0  0  0
   -3.7350   -5.0772    0.0000 C   0  0  0  0  0  0  0  0  0  0  0  0
   -3.5626   -2.8232    0.0000 C   0  0  0  0  0  0  0  0  0  0  0  0
   -4.8711   -3.5563    0.0000 O   0  0  0  0  0  0  0  0  0  0  0  0
   -4.1208   -1.4244    0.0000 C   0  0  0  0  0  0  0  0  0  0  0  0
   -5.5746   -1.7938    0.0000 C   0  0  0  0  0  0  0  0  0  0  0  0
   -4.2979    0.0712    0.0000 C   0  0  0  0  0  0  0  0  0  0  0  0
   -5.7978    0.0907    0.0000 O   0  0  0  0  0  0  0  0  0  0  0  0
   -4.0821    1.5613    0.0000 C   0  0  0  0  0  0  0  0  0  0  0  0
   -5.5258    1.9681    0.0000 C   0  0  0  0  0  0  0  0  0  0  0  0
   -3.4888    2.9442    0.0000 C   0  0  0  0  0  0  0  0  0  0  0  0
   -4.7784    3.7098    0.0000 O   0  0  0  0  0  0  0  0  0  0  0  0
   -6.0865    2.9758    0.0000 C   0  0  0  0  0  0  0  0  0  0  0  0
   -7.3763    3.7416    0.0000 O   0  0  0  0  0  0  0  0  0  0  0  0
   -6.1047    1.4759    0.0000 C   0  0  0  0  0  0  0  0  0  0  0  0
   -2.5607    4.1247    0.0000 C   0  0  0  0  0  0  0  0  0  0  0  0
   -3.6117    5.1949    0.0000 C   0  0  0  0  0  0  0  0  0  0  0  0
    3.5610   -6.9024    0.0000 C   0  0  0  0  0  0  0  0  0  0  0  0
    6.9918   -0.9089    0.0000 C   0  0  0  0  0  0  0  0  0  0  0  0
    8.4870   -1.0275    0.0000 S   0  0  0  0  0  0  0  0  0  0  0  0
    9.0617    0.3581    0.0000 C   0  0  0  0  0  0  0  0  0  0  0  0
    7.9217    1.3328    0.0000 N   0  0  0  0  0  0  0  0  0  0  0  0
    6.6423    0.5497    0.0000 C   0  0  0  0  0  0  0  0  0  0  0  0
    5.1900    0.9850    0.0000 C   0  0  0  0  0  0  0  0  0  0  0  0
    4.7186    2.4962    0.0000 C   0  0  0  0  0  0  0  0  0  0  0  0
    5.4213    3.8680    0.0000 C   0  0  0  0  0  0  0  0  0  0  0  0
    6.9034    4.0978    0.0000 O   0  0  0  0  0  0  0  0  0  0  0  0
   10.5204    0.7076    0.0000 N   0  0  0  0  0  0  0  0  0  0  0  0
   10.9471    2.1455    0.0000 C   0  0  0  0  0  0  0  0  0  0  0  0
   12.4058    2.4950    0.0000 C   0  0  0  0  0  0  0  0  0  0  0  0
   13.4377    1.4063    0.0000 N   0  0  0  0  0  0  0  0  0  0  0  0
   14.8964    1.7557    0.0000 C   0  0  0  0  0  0  0  0  0  0  0  0
   15.9284    0.6672    0.0000 C   0  0  0  0  0  0  0  0  0  0  0  0
   17.3871    1.0166    0.0000 C   0  0  0  0  0  0  0  0  0  0  0  0
   18.4190   -0.0719    0.0000 C   0  0  0  0  0  0  0  0  0  0  0  0
   17.9923   -1.5098    0.0000 C   0  0  0  0  0  0  0  0  0  0  0  0
   16.5336   -1.8593    0.0000 C   0  0  0  0  0  0  0  0  0  0  0  0
   15.5017   -0.7708    0.0000 C   0  0  0  0  0  0  0  0  0  0  0  0
   13.0110   -0.0317    0.0000 C   0  0  0  0  0  0  0  0  0  0  0  0
   11.5523   -0.3811    0.0000 C   0  0  0  0  0  0  0  0  0  0  0  0
  1  2  1  0  0  0  0
  2  3  1  0  0  0  0
  3  4  1  0  0  0  0
  4  5  2  0  0  0  0
  5  6  1  0  0  0  0
  6  7  1  0  0  0  0
  7  8  1  0  0  0  0
  7  9  1  0  0  0  0
  9 10  1  0  0  0  0
 10 11  2  0  0  0  0
 11 12  1  0  0  0  0
 11 13  1  0  0  0  0
 13 14  1  0  0  0  0
 13 15  2  0  0  0  0
 15 16  1  0  0  0  0
 16 17  1  0  0  0  0
 16 18  2  0  0  0  0
 18 19  1  0  0  0  0
 19 20  1  0  0  0  0
 20 21  2  0  0  0  0
 20 22  1  0  0  0  0
 22 23  2  0  0  0  0
 23 24  1  0  0  0  0
 24 25  2  0  0  0  0
 25 26  1  0  0  0  0
 26 27  1  0  0  0  0
 26 28  1  0  0  0  0
 28 29  1  0  0  0  0
 28 30  1  0  0  0  0
 30 31  1  0  0  0  0
 30 32  1  0  0  0  0
 32 33  1  0  0  0  0
 32 34  1  0  0  0  0
 34 35  1  0  0  0  0
 34 36  1  0  0  0  0
 36 37  1  0  0  0  0
 37 38  1  0  0  0  0
 38 39  2  0  0  0  0
 38 40  1  0  0  0  0
 36 41  1  0  0  0  0
  3 41  1  0  0  0  0
 41 42  1  0  0  0  0
 22 43  1  0  0  0  0
 18 44  1  0  0  0  0
 44 45  1  0  0  0  0
 45 46  1  0  0  0  0
 46 47  2  0  0  0  0
 47 48  1  0  0  0  0
 44 48  2  0  0  0  0
 48 49  1  0  0  0  0
 15 49  1  0  0  0  0
 49 50  2  0  0  0  0
 10 50  1  0  0  0  0
 50 51  1  0  0  0  0
  7 51  1  0  0  0  0
 51 52  2  0  0  0  0
 46 53  1  0  0  0  0
 53 54  1  0  0  0  0
 54 55  1  0  0  0  0
 55 56  1  0  0  0  0
 56 57  1  0  0  0  0
 57 58  1  0  0  0  0
 58 59  2  0  0  0  0
 59 60  1  0  0  0  0
 60 61  2  0  0  0  0
 61 62  1  0  0  0  0
 62 63  2  0  0  0  0
 58 63  1  0  0  0  0
 56 64  1  0  0  0  0
 64 65  1  0  0  0  0
 53 65  1  0  0  0  0
M  END
> <Molecule Name>
CHEMBL34134

> <IUPAC>
(9E,19E,21Z)-28-(4-benzylpiperazin-1-yl)-2,15,17,32-tetrahydroxy-11-methoxy-3,7,12,14,16,18,22-heptamethyl-6,23-dioxo-8,33-dioxa-27-thia-24,29-diazapentacyclo[23.6.1.1,.0,.0,]tr
itriaconta-1,3,5(31),9,19,21,25(32),26(30),28-nonaen-13-yl acetate

> <Collections>
Set2_NotListedAsBetaLactamResistant (mostly)
TrainingSet_Kleb_p_ALPerryman_JSF

> <ChEMBL_Data_Neisseria_g: NUM_RO5_VIOLATIONS>
3

> <ChEMBL_Data_Neisseria_g: Qualifier_for_MIC_Ng>
=

> <ChEMBL_Data_Neisseria_g: ASSAY_CHEMBLID>
CHEMBL750222

> <ChEMBL_Data_Neisseria_g: DESCRIPTION_of_Assay_Ng>
In vitro antibacterial activity of compound against Neisseria gonorrhoeae ISM 68/126

> <ChEMBL_Data_Neisseria_g: PUBMED_ID>
2329569

> <ChEMBL_Data_Neisseria_g: YEAR>
1990

> <ChEMBL_Data_Neisseria_g: JOURNAL>
J. Med. Chem.

> <ChEMBL_Data_Neisseria_g: VOLUME>
33

> <ChEMBL_Data_Neisseria_g: FIRST_PAGE>
1470

> <ChEMBL_Data_Neisseria_g: MIC_vs_Neisseria_microg_per_mL>
0.125

> <ALogP>
6.142

> <Active>
1

> <Molecular_Weight>
913.086

$$$$

Generated by Molecular Materials Informatics

 21 22  0  0  0  0  0  0  0  0999 V2000
    0.8443    3.6937    0.0000 C   0  0  0  0  0  0  0  0  0  0  0  0
    0.8443    2.1937    0.0000 C   0  0  0  0  0  0  0  0  0  0  0  0
    2.1434    1.4437    0.0000 C   0  0  0  0  0  0  0  0  0  0  0  0
    2.1434   -0.0562    0.0000 C   0  0  0  0  0  0  0  0  0  0  0  0
    3.4425   -0.8062    0.0000 C   0  0  0  0  0  0  0  0  0  0  0  0
    3.4425   -2.3062    0.0000 C   0  0  0  0  0  0  0  0  0  0  0  0
    4.7416   -3.0563    0.0000 C   0  0  0  0  0  0  0  0  0  0  0  0
    4.7416   -4.5563    0.0000 C   0  0  0  0  0  0  0  0  0  0  0  0
    6.0405   -5.3062    0.0000 C   0  0  0  0  0  0  0  0  0  0  0  0
    6.0405   -6.8062    0.0000 N   0  0  0  0  0  0  0  0  0  0  0  0
    4.7416   -7.5563    0.0000 C   0  0  0  0  0  0  0  0  0  0  0  0
    4.7416   -9.0562    0.0000 N   0  0  0  0  0  0  0  0  0  0  0  0
    3.4425   -6.8062    0.0000 N   0  0  0  0  0  0  0  0  0  0  0  0
    3.4425   -5.3062    0.0000 C   0  0  0  0  0  0  0  0  0  0  0  0
    2.1434   -4.5563    0.0000 N   0  0  0  0  0  0  0  0  0  0  0  0
    2.1434   -3.0563    0.0000 C   0  0  0  0  0  0  0  0  0  0  0  0
    0.8443   -2.3062    0.0000 C   0  0  0  0  0  0  0  0  0  0  0  0
   -0.4546   -3.0563    0.0000 C   0  0  0  0  0  0  0  0  0  0  0  0
   -1.7537   -2.3062    0.0000 C   0  0  0  0  0  0  0  0  0  0  0  0
    0.8443   -0.8062    0.0000 C   0  0  0  0  0  0  0  0  0  0  0  0
   -0.4546   -0.0562    0.0000 O   0  0  0  0  0  0  0  0  0  0  0  0
  1  2  1  0  0  0  0
  2  3  1  0  0  0  0
  3  4  1  0  0  0  0
  4  5  2  0  0  0  0
  5  6  1  0  0  0  0
  6  7  1  0  0  0  0
  7  8  1  0  0  0  0
  8  9  2  0  0  0  0
  9 10  1  0  0  0  0
 10 11  2  0  0  0  0
 11 12  1  0  0  0  0
 11 13  1  0  0  0  0
 13 14  2  0  0  0  0
  8 14  1  0  0  0  0
 14 15  1  0  0  0  0
  6 16  2  0  0  0  0
 16 17  1  0  0  0  0
 17 18  1  0  0  0  0
 18 19  1  0  0  0  0
 17 20  2  0  0  0  0
  4 20  1  0  0  0  0
 20 21  1  0  0  0  0
M  END
> <Molecule Name>
CHEMBL25888

> <IUPAC>
4-[(2,4-diaminopyrimidin-5-yl)methyl]-2-ethyl-6-propylphenol

> <ChEMBL_Data_Neisseria_g: NUM_RO5_VIOLATIONS>
0

> <ChEMBL_Data_Neisseria_g: Qualifier_for_MIC_Ng>
=

> <ChEMBL_Data_Neisseria_g: ASSAY_CHEMBLID>
CHEMBL753614

> <ChEMBL_Data_Neisseria_g: DESCRIPTION_of_Assay_Ng>
Inhibition of growth of Neisseria gonorrhoeae

> <ChEMBL_Data_Neisseria_g: PUBMED_ID>
3121854

> <ChEMBL_Data_Neisseria_g: YEAR>
1988

> <ChEMBL_Data_Neisseria_g: JOURNAL>
J. Med. Chem.

> <ChEMBL_Data_Neisseria_g: VOLUME>
31

> <ChEMBL_Data_Neisseria_g: FIRST_PAGE>
122

> <ChEMBL_Data_Neisseria_g: MIC_vs_Neisseria_microg_per_mL>
2.6

> <ALogP>
3.691

> <Active>
1

> <Molecular_Weight>
286.372

$$$$

Generated by Molecular Materials Informatics

 26 28  0  0  0  0  0  0  0  0999 V2000
  -10.9086   -1.6457    0.0000 C   0  0  0  0  0  0  0  0  0  0  0  0
   -9.6095   -0.8957    0.0000 C   0  0  0  0  0  0  0  0  0  0  0  0
   -9.6095    0.6042    0.0000 O   0  0  0  0  0  0  0  0  0  0  0  0
   -8.3105   -1.6457    0.0000 N   0  0  0  0  0  0  0  0  0  0  0  0
   -7.0116   -0.8957    0.0000 C   0  0  0  0  0  0  0  0  0  0  0  0
   -5.7126   -1.6457    0.0000 C   0  0  0  0  0  0  0  0  0  0  0  0
   -4.3422   -1.0355    0.0000 O   0  0  0  0  0  0  0  0  0  0  0  0
   -3.3386   -2.1502    0.0000 C   0  0  0  0  0  0  0  0  0  0  0  0
   -4.0886   -3.4493    0.0000 C   0  0  0  0  0  0  0  0  0  0  0  0
   -5.5558   -3.1373    0.0000 C   0  0  0  0  0  0  0  0  0  0  0  0
   -1.8469   -1.9935    0.0000 C   0  0  0  0  0  0  0  0  0  0  0  0
   -1.0969   -0.6944    0.0000 C   0  0  0  0  0  0  0  0  0  0  0  0
    0.3704   -1.0063    0.0000 S   0  0  0  0  0  0  0  0  0  0  0  0
    0.5271   -2.4980    0.0000 C   0  0  0  0  0  0  0  0  0  0  0  0
    1.8261   -3.2480    0.0000 N   0  0  0  0  0  0  0  0  0  0  0  0
    3.1250   -2.4980    0.0000 C   0  0  0  0  0  0  0  0  0  0  0  0
    3.1250   -0.9981    0.0000 N   0  0  0  0  0  0  0  0  0  0  0  0
    4.4241   -3.2480    0.0000 N   0  0  0  0  0  0  0  0  0  0  0  0
    5.7231   -2.4980    0.0000 C   0  0  0  0  0  0  0  0  0  0  0  0
    7.0222   -3.2480    0.0000 C   0  0  0  0  0  0  0  0  0  0  0  0
    8.3210   -2.4980    0.0000 C   0  0  0  0  0  0  0  0  0  0  0  0
    9.6201   -3.2480    0.0000 C   0  0  0  0  0  0  0  0  0  0  0  0
    9.6201   -4.7480    0.0000 C   0  0  0  0  0  0  0  0  0  0  0  0
    8.3210   -5.4979    0.0000 C   0  0  0  0  0  0  0  0  0  0  0  0
    7.0222   -4.7480    0.0000 C   0  0  0  0  0  0  0  0  0  0  0  0
   -0.8432   -3.1082    0.0000 N   0  0  0  0  0  0  0  0  0  0  0  0
  1  2  1  0  0  0  0
  2  3  2  0  0  0  0
  2  4  1  0  0  0  0
  4  5  1  0  0  0  0
  5  6  1  0  0  0  0
  6  7  1  0  0  0  0
  7  8  1  0  0  0  0
  8  9  2  0  0  0  0
  9 10  1  0  0  0  0
  6 10  2  0  0  0  0
  8 11  1  0  0  0  0
 11 12  2  0  0  0  0
 12 13  1  0  0  0  0
 13 14  1  0  0  0  0
 14 15  1  0  0  0  0
 15 16  1  0  0  0  0
 16 17  2  0  0  0  0
 16 18  1  0  0  0  0
 18 19  1  0  0  0  0
 19 20  1  0  0  0  0
 20 21  1  0  0  0  0
 21 22  1  0  0  0  0
 22 23  1  0  0  0  0
 23 24  1  0  0  0  0
 24 25  1  0  0  0  0
 20 25  1  0  0  0  0
 14 26  2  0  0  0  0
 11 26  1  0  0  0  0
M  END
> <Molecule Name>
CHEMBL24635

> <IUPAC>
N-[(5-{2-[N'-(cyclohexylmethyl)carbamimidamido]-1,3-thiazol-4-yl}furan-2-yl)methyl]acetamide

> <ChEMBL_Data_Neisseria_g: NUM_RO5_VIOLATIONS>
0

> <ChEMBL_Data_Neisseria_g: Qualifier_for_MIC_Ng>
>

> <ChEMBL_Data_Neisseria_g: ASSAY_CHEMBLID>
CHEMBL754486

> <ChEMBL_Data_Neisseria_g: DESCRIPTION_of_Assay_Ng>
Compound was evaluated for antimicrobial activity against Neisseria gonorrhoeae

> <ChEMBL_Data_Neisseria_g: PUBMED_ID>
9871756

> <ChEMBL_Data_Neisseria_g: YEAR>
1998

> <ChEMBL_Data_Neisseria_g: JOURNAL>
Bioorg. Med. Chem. Lett.

> <ChEMBL_Data_Neisseria_g: VOLUME>
8

> <ChEMBL_Data_Neisseria_g: FIRST_PAGE>
1307

> <ChEMBL_Data_Neisseria_g: MIC_vs_Neisseria_microg_per_mL>
100

> <ALogP>
2.734

> <Active>
0

> <Molecular_Weight>
375.488

$$$$

Generated by Molecular Materials Informatics

 25 26  0  0  0  0  0  0  0  0999 V2000
    3.7347    2.1936    0.0000 C   0  0  0  0  0  0  0  0  0  0  0  0
    2.4357    1.4436    0.0000 O   0  0  0  0  0  0  0  0  0  0  0  0
    2.4357   -0.0563    0.0000 C   0  0  0  0  0  0  0  0  0  0  0  0
    3.7347   -0.8063    0.0000 C   0  0  0  0  0  0  0  0  0  0  0  0
    3.7347   -2.3063    0.0000 C   0  0  0  0  0  0  0  0  0  0  0  0
    2.4357   -3.0562    0.0000 C   0  0  0  0  0  0  0  0  0  0  0  0
    2.4357   -4.5562    0.0000 C   0  0  0  0  0  0  0  0  0  0  0  0
    1.1366   -5.3062    0.0000 C   0  0  0  0  0  0  0  0  0  0  0  0
    1.1366   -6.8061    0.0000 C   0  0  0  0  0  0  0  0  0  0  0  0
   -0.1622   -7.5561    0.0000 N   0  0  0  0  0  0  0  0  0  0  0  0
   -1.4613   -6.8061    0.0000 C   0  0  0  0  0  0  0  0  0  0  0  0
   -2.7603   -7.5561    0.0000 N   0  0  0  0  0  0  0  0  0  0  0  0
   -1.4613   -5.3062    0.0000 N   0  0  0  0  0  0  0  0  0  0  0  0
   -0.1622   -4.5562    0.0000 C   0  0  0  0  0  0  0  0  0  0  0  0
   -0.1622   -3.0562    0.0000 N   0  0  0  0  0  0  0  0  0  0  0  0
    1.1366   -2.3063    0.0000 C   0  0  0  0  0  0  0  0  0  0  0  0
    1.1366   -0.8063    0.0000 C   0  0  0  0  0  0  0  0  0  0  0  0
   -0.1622   -0.0563    0.0000 C   0  0  0  0  0  0  0  0  0  0  0  0
   -1.4613    0.6936    0.0000 C   0  0  0  0  0  0  0  0  0  0  0  0
    0.5877    1.2427    0.0000 C   0  0  0  0  0  0  0  0  0  0  0  0
   -0.9122   -1.3554    0.0000 C   0  0  0  0  0  0  0  0  0  0  0  0
    5.0338   -0.0563    0.0000 C   0  0  0  0  0  0  0  0  0  0  0  0
    6.3326    0.6936    0.0000 C   0  0  0  0  0  0  0  0  0  0  0  0
    5.7838   -1.3554    0.0000 C   0  0  0  0  0  0  0  0  0  0  0  0
    4.2838    1.2427    0.0000 C   0  0  0  0  0  0  0  0  0  0  0  0
  1  2  1  0  0  0  0
  2  3  1  0  0  0  0
  3  4  2  0  0  0  0
  4  5  1  0  0  0  0
  5  6  2  0  0  0  0
  6  7  1  0  0  0  0
  7  8  1  0  0  0  0
  8  9  2  0  0  0  0
  9 10  1  0  0  0  0
 10 11  2  0  0  0  0
 11 12  1  0  0  0  0
 11 13  1  0  0  0  0
 13 14  2  0  0  0  0
  8 14  1  0  0  0  0
 14 15  1  0  0  0  0
  6 16  1  0  0  0  0
 16 17  2  0  0  0  0
  3 17  1  0  0  0  0
 17 18  1  0  0  0  0
 18 19  1  0  0  0  0
 18 20  1  0  0  0  0
 18 21  1  0  0  0  0
  4 22  1  0  0  0  0
 22 23  1  0  0  0  0
 22 24  1  0  0  0  0
 22 25  1  0  0  0  0
M  END
> <Molecule Name>
CHEMBL24374

> <IUPAC>
5-[(3,5-di-tert-butyl-4-methoxyphenyl)methyl]pyrimidine-2,4-diamine

> <ChEMBL_Data_Neisseria_g: NUM_RO5_VIOLATIONS>
0

> <ChEMBL_Data_Neisseria_g: Qualifier_for_MIC_Ng>
=

> <ChEMBL_Data_Neisseria_g: ASSAY_CHEMBLID>
CHEMBL753614

> <ChEMBL_Data_Neisseria_g: DESCRIPTION_of_Assay_Ng>
Inhibition of growth of Neisseria gonorrhoeae

> <ChEMBL_Data_Neisseria_g: PUBMED_ID>
3121854

> <ChEMBL_Data_Neisseria_g: YEAR>
1988

> <ChEMBL_Data_Neisseria_g: JOURNAL>
J. Med. Chem.

> <ChEMBL_Data_Neisseria_g: VOLUME>
31

> <ChEMBL_Data_Neisseria_g: FIRST_PAGE>
122

> <ChEMBL_Data_Neisseria_g: MIC_vs_Neisseria_microg_per_mL>
4.5

> <ALogP>
4.377

> <Active>
1

> <Molecular_Weight>
342.478

$$$$

Generated by Molecular Materials Informatics

 24 25  0  0  0  0  0  0  0  0999 V2000
   -3.9572   -7.4175    0.0000 C   0  0  0  0  0  0  0  0  0  0  0  0
   -2.6582   -6.6675    0.0000 C   0  0  0  0  0  0  0  0  0  0  0  0
   -1.3593   -7.4175    0.0000 O   0  0  0  0  0  0  0  0  0  0  0  0
   -0.0602   -6.6675    0.0000 C   0  0  0  0  0  0  0  0  0  0  0  0
    1.2388   -7.4175    0.0000 C   0  0  0  0  0  0  0  0  0  0  0  0
    2.5379   -6.6675    0.0000 N   0  0  0  0  0  0  0  0  0  0  0  0
    3.8368   -7.4175    0.0000 C   0  0  0  0  0  0  0  0  0  0  0  0
    3.8368   -8.9175    0.0000 N   0  0  0  0  0  0  0  0  0  0  0  0
    5.1358   -6.6675    0.0000 N   0  0  0  0  0  0  0  0  0  0  0  0
    6.4349   -7.4175    0.0000 C   0  0  0  0  0  0  0  0  0  0  0  0
    7.8050   -6.8074    0.0000 N   0  0  0  0  0  0  0  0  0  0  0  0
    8.8088   -7.9220    0.0000 C   0  0  0  0  0  0  0  0  0  0  0  0
    8.0588   -9.2211    0.0000 C   0  0  0  0  0  0  0  0  0  0  0  0
    6.5916   -8.9093    0.0000 S   0  0  0  0  0  0  0  0  0  0  0  0
   10.3006   -7.7653    0.0000 C   0  0  0  0  0  0  0  0  0  0  0  0
   11.0506   -6.4663    0.0000 O   0  0  0  0  0  0  0  0  0  0  0  0
   12.5176   -6.7781    0.0000 C   0  0  0  0  0  0  0  0  0  0  0  0
   13.6323   -5.7745    0.0000 C   0  0  0  0  0  0  0  0  0  0  0  0
   13.3205   -4.3072    0.0000 N   0  0  0  0  0  0  0  0  0  0  0  0
   14.4352   -3.3036    0.0000 C   0  0  0  0  0  0  0  0  0  0  0  0
   14.1234   -1.8364    0.0000 O   0  0  0  0  0  0  0  0  0  0  0  0
   15.8617   -3.7671    0.0000 C   0  0  0  0  0  0  0  0  0  0  0  0
   12.6745   -8.2699    0.0000 C   0  0  0  0  0  0  0  0  0  0  0  0
   11.3042   -8.8800    0.0000 C   0  0  0  0  0  0  0  0  0  0  0  0
  1  2  1  0  0  0  0
  2  3  1  0  0  0  0
  3  4  1  0  0  0  0
  4  5  1  0  0  0  0
  5  6  1  0  0  0  0
  6  7  2  0  0  0  0
  7  8  1  0  0  0  0
  7  9  1  0  0  0  0
  9 10  1  0  0  0  0
 10 11  2  0  0  0  0
 11 12  1  0  0  0  0
 12 13  2  0  0  0  0
 13 14  1  0  0  0  0
 10 14  1  0  0  0  0
 12 15  1  0  0  0  0
 15 16  1  0  0  0  0
 16 17  1  0  0  0  0
 17 18  1  0  0  0  0
 18 19  1  0  0  0  0
 19 20  1  0  0  0  0
 20 21  2  0  0  0  0
 20 22  1  0  0  0  0
 17 23  2  0  0  0  0
 23 24  1  0  0  0  0
 15 24  2  0  0  0  0
M  END
> <Molecule Name>
CHEMBL24356

> <IUPAC>
N-[(5-{2-[N'-(2-ethoxyethyl)carbamimidamido]-1,3-thiazol-4-yl}furan-2-yl)methyl]acetamide

> <ChEMBL_Data_Neisseria_g: NUM_RO5_VIOLATIONS>
0

> <ChEMBL_Data_Neisseria_g: Qualifier_for_MIC_Ng>
>

> <ChEMBL_Data_Neisseria_g: ASSAY_CHEMBLID>
CHEMBL754486

> <ChEMBL_Data_Neisseria_g: DESCRIPTION_of_Assay_Ng>
Compound was evaluated for antimicrobial activity against Neisseria gonorrhoeae

> <ChEMBL_Data_Neisseria_g: PUBMED_ID>
9871756

> <ChEMBL_Data_Neisseria_g: YEAR>
1998

> <ChEMBL_Data_Neisseria_g: JOURNAL>
Bioorg. Med. Chem. Lett.

> <ChEMBL_Data_Neisseria_g: VOLUME>
8

> <ChEMBL_Data_Neisseria_g: FIRST_PAGE>
1307

> <ChEMBL_Data_Neisseria_g: MIC_vs_Neisseria_microg_per_mL>
100

> <ALogP>
0.763

> <Active>
0

> <Molecular_Weight>
351.424

$$$$

Generated by Molecular Materials Informatics

 22 23  0  0  0  0  0  0  0  0999 V2000
    0.8443    3.6938    0.0000 C   0  0  0  0  0  0  0  0  0  0  0  0
    0.8443    2.1938    0.0000 C   0  0  0  0  0  0  0  0  0  0  0  0
    2.1434    1.4438    0.0000 O   0  0  0  0  0  0  0  0  0  0  0  0
    2.1434   -0.0562    0.0000 C   0  0  0  0  0  0  0  0  0  0  0  0
    3.4425   -0.8062    0.0000 C   0  0  0  0  0  0  0  0  0  0  0  0
    3.4425   -2.3062    0.0000 C   0  0  0  0  0  0  0  0  0  0  0  0
    4.7416   -3.0563    0.0000 C   0  0  0  0  0  0  0  0  0  0  0  0
    4.7416   -4.5563    0.0000 C   0  0  0  0  0  0  0  0  0  0  0  0
    6.0405   -5.3063    0.0000 C   0  0  0  0  0  0  0  0  0  0  0  0
    6.0405   -6.8062    0.0000 N   0  0  0  0  0  0  0  0  0  0  0  0
    4.7416   -7.5563    0.0000 C   0  0  0  0  0  0  0  0  0  0  0  0
    4.7416   -9.0562    0.0000 N   0  0  0  0  0  0  0  0  0  0  0  0
    3.4425   -6.8062    0.0000 N   0  0  0  0  0  0  0  0  0  0  0  0
    3.4425   -5.3063    0.0000 C   0  0  0  0  0  0  0  0  0  0  0  0
    2.1434   -4.5563    0.0000 N   0  0  0  0  0  0  0  0  0  0  0  0
    2.1434   -3.0563    0.0000 C   0  0  0  0  0  0  0  0  0  0  0  0
    0.8443   -2.3062    0.0000 C   0  0  0  0  0  0  0  0  0  0  0  0
   -0.4546   -3.0563    0.0000 O   0  0  0  0  0  0  0  0  0  0  0  0
   -1.7537   -2.3062    0.0000 C   0  0  0  0  0  0  0  0  0  0  0  0
    0.8443   -0.8062    0.0000 C   0  0  0  0  0  0  0  0  0  0  0  0
   -0.4546   -0.0562    0.0000 O   0  0  0  0  0  0  0  0  0  0  0  0
   -0.4546    1.4438    0.0000 C   0  0  0  0  0  0  0  0  0  0  0  0
  1  2  1  0  0  0  0
  2  3  1  0  0  0  0
  3  4  1  0  0  0  0
  4  5  2  0  0  0  0
  5  6  1  0  0  0  0
  6  7  1  0  0  0  0
  7  8  1  0  0  0  0
  8  9  2  0  0  0  0
  9 10  1  0  0  0  0
 10 11  2  0  0  0  0
 11 12  1  0  0  0  0
 11 13  1  0  0  0  0
 13 14  2  0  0  0  0
  8 14  1  0  0  0  0
 14 15  1  0  0  0  0
  6 16  2  0  0  0  0
 16 17  1  0  0  0  0
 17 18  1  0  0  0  0
 18 19  1  0  0  0  0
 17 20  2  0  0  0  0
  4 20  1  0  0  0  0
 20 21  1  0  0  0  0
 21 22  1  0  0  0  0
M  END
> <Molecule Name>
CHEMBL23609

> <CDD Number>
CDD-1002120

> <IUPAC>
5-[(3-ethoxy-4,5-dimethoxyphenyl)methyl]pyrimidine-2,4-diamine

> <Collections>
TrainingSet_Kleb_p_ALPerryman_JSF

> <ChEMBL_Data_Neisseria_g: NUM_RO5_VIOLATIONS>
0

> <ChEMBL_Data_Neisseria_g: Qualifier_for_MIC_Ng>
=

> <ChEMBL_Data_Neisseria_g: ASSAY_CHEMBLID>
CHEMBL753614

> <ChEMBL_Data_Neisseria_g: DESCRIPTION_of_Assay_Ng>
Inhibition of growth of Neisseria gonorrhoeae

> <ChEMBL_Data_Neisseria_g: PUBMED_ID>
3121854

> <ChEMBL_Data_Neisseria_g: YEAR>
1988

> <ChEMBL_Data_Neisseria_g: JOURNAL>
J. Med. Chem.

> <ChEMBL_Data_Neisseria_g: VOLUME>
31

> <ChEMBL_Data_Neisseria_g: FIRST_PAGE>
122

> <ChEMBL_Data_Neisseria_g: MIC_vs_Neisseria_microg_per_mL>
54.8

> <ALogP>
1.892

> <Active>
0

> <Molecular_Weight>
304.344

$$$$

Generated by Molecular Materials Informatics

 20 21  0  0  0  0  0  0  0  0999 V2000
    0.8443    2.5312    0.0000 C   0  0  0  0  0  0  0  0  0  0  0  0
    2.1434    1.7812    0.0000 C   0  0  0  0  0  0  0  0  0  0  0  0
    2.1434    0.2812    0.0000 C   0  0  0  0  0  0  0  0  0  0  0  0
    3.4425   -0.4688    0.0000 C   0  0  0  0  0  0  0  0  0  0  0  0
    3.4425   -1.9687    0.0000 C   0  0  0  0  0  0  0  0  0  0  0  0
    4.7416   -2.7188    0.0000 C   0  0  0  0  0  0  0  0  0  0  0  0
    4.7416   -4.2188    0.0000 C   0  0  0  0  0  0  0  0  0  0  0  0
    6.0405   -4.9688    0.0000 C   0  0  0  0  0  0  0  0  0  0  0  0
    6.0405   -6.4687    0.0000 N   0  0  0  0  0  0  0  0  0  0  0  0
    4.7416   -7.2188    0.0000 C   0  0  0  0  0  0  0  0  0  0  0  0
    4.7416   -8.7188    0.0000 N   0  0  0  0  0  0  0  0  0  0  0  0
    3.4425   -6.4687    0.0000 N   0  0  0  0  0  0  0  0  0  0  0  0
    3.4425   -4.9688    0.0000 C   0  0  0  0  0  0  0  0  0  0  0  0
    2.1434   -4.2188    0.0000 N   0  0  0  0  0  0  0  0  0  0  0  0
    2.1434   -2.7188    0.0000 C   0  0  0  0  0  0  0  0  0  0  0  0
    0.8443   -1.9687    0.0000 C   0  0  0  0  0  0  0  0  0  0  0  0
   -0.4546   -2.7188    0.0000 C   0  0  0  0  0  0  0  0  0  0  0  0
    0.8443   -0.4688    0.0000 C   0  0  0  0  0  0  0  0  0  0  0  0
   -0.4546    0.2812    0.0000 O   0  0  0  0  0  0  0  0  0  0  0  0
   -1.7537   -0.4688    0.0000 C   0  0  0  0  0  0  0  0  0  0  0  0
  1  2  1  0  0  0  0
  2  3  1  0  0  0  0
  3  4  2  0  0  0  0
  4  5  1  0  0  0  0
  5  6  1  0  0  0  0
  6  7  1  0  0  0  0
  7  8  2  0  0  0  0
  8  9  1  0  0  0  0
  9 10  2  0  0  0  0
 10 11  1  0  0  0  0
 10 12  1  0  0  0  0
 12 13  2  0  0  0  0
  7 13  1  0  0  0  0
 13 14  1  0  0  0  0
  5 15  2  0  0  0  0
 15 16  1  0  0  0  0
 16 17  1  0  0  0  0
 16 18  2  0  0  0  0
  3 18  1  0  0  0  0
 18 19  1  0  0  0  0
 19 20  1  0  0  0  0
M  END
> <Molecule Name>
CHEMBL23447

> <IUPAC>
5-[(3-ethyl-4-methoxy-5-methylphenyl)methyl]pyrimidine-2,4-diamine

> <ChEMBL_Data_Neisseria_g: NUM_RO5_VIOLATIONS>
0

> <ChEMBL_Data_Neisseria_g: Qualifier_for_MIC_Ng>
=

> <ChEMBL_Data_Neisseria_g: ASSAY_CHEMBLID>
CHEMBL753614

> <ChEMBL_Data_Neisseria_g: DESCRIPTION_of_Assay_Ng>
Inhibition of growth of Neisseria gonorrhoeae

> <ChEMBL_Data_Neisseria_g: PUBMED_ID>
3121854

> <ChEMBL_Data_Neisseria_g: YEAR>
1988

> <ChEMBL_Data_Neisseria_g: JOURNAL>
J. Med. Chem.

> <ChEMBL_Data_Neisseria_g: VOLUME>
31

> <ChEMBL_Data_Neisseria_g: FIRST_PAGE>
122

> <ChEMBL_Data_Neisseria_g: MIC_vs_Neisseria_microg_per_mL>
38.1

> <ALogP>
3.004

> <Active>
0

> <Molecular_Weight>
272.345

$$$$

Generated by Molecular Materials Informatics

 22 23  0  0  0  0  0  0  0  0999 V2000
   -2.5979    1.5186    0.0000 C   0  0  0  0  0  0  0  0  0  0  0  0
   -1.2991    0.7687    0.0000 O   0  0  0  0  0  0  0  0  0  0  0  0
   -1.2991   -0.7313    0.0000 C   0  0  0  0  0  0  0  0  0  0  0  0
    0.0000   -1.4813    0.0000 C   0  0  0  0  0  0  0  0  0  0  0  0
    0.0000   -2.9812    0.0000 C   0  0  0  0  0  0  0  0  0  0  0  0
    1.2991   -3.7312    0.0000 C   0  0  0  0  0  0  0  0  0  0  0  0
    2.5979   -2.9812    0.0000 C   0  0  0  0  0  0  0  0  0  0  0  0
    2.5979   -1.4813    0.0000 C   0  0  0  0  0  0  0  0  0  0  0  0
    3.8970   -0.7313    0.0000 N   0  0  0  0  0  0  0  0  0  0  0  0
    5.1960   -1.4813    0.0000 C   0  0  0  0  0  0  0  0  0  0  0  0
    6.4951   -0.7313    0.0000 N   0  0  0  0  0  0  0  0  0  0  0  0
    5.1960   -2.9812    0.0000 N   0  0  0  0  0  0  0  0  0  0  0  0
    3.8970   -3.7312    0.0000 C   0  0  0  0  0  0  0  0  0  0  0  0
    3.8970   -5.2311    0.0000 N   0  0  0  0  0  0  0  0  0  0  0  0
   -1.2991   -3.7312    0.0000 C   0  0  0  0  0  0  0  0  0  0  0  0
   -2.5979   -2.9812    0.0000 C   0  0  0  0  0  0  0  0  0  0  0  0
   -3.8970   -3.7312    0.0000 C   0  0  0  0  0  0  0  0  0  0  0  0
   -5.1960   -2.9812    0.0000 C   0  0  0  0  0  0  0  0  0  0  0  0
   -6.4951   -3.7312    0.0000 C   0  0  0  0  0  0  0  0  0  0  0  0
   -2.5979   -1.4813    0.0000 C   0  0  0  0  0  0  0  0  0  0  0  0
   -3.8970   -0.7313    0.0000 O   0  0  0  0  0  0  0  0  0  0  0  0
   -3.8970    0.7687    0.0000 C   0  0  0  0  0  0  0  0  0  0  0  0
  1  2  1  0  0  0  0
  2  3  1  0  0  0  0
  3  4  2  0  0  0  0
  4  5  1  0  0  0  0
  5  6  1  0  0  0  0
  6  7  1  0  0  0  0
  7  8  2  0  0  0  0
  8  9  1  0  0  0  0
  9 10  2  0  0  0  0
 10 11  1  0  0  0  0
 10 12  1  0  0  0  0
 12 13  2  0  0  0  0
  7 13  1  0  0  0  0
 13 14  1  0  0  0  0
  5 15  2  0  0  0  0
 15 16  1  0  0  0  0
 16 17  1  0  0  0  0
 17 18  2  0  0  0  0
 18 19  1  0  0  0  0
 16 20  2  0  0  0  0
  3 20  1  0  0  0  0
 20 21  1  0  0  0  0
 21 22  1  0  0  0  0
M  END
> <Molecule Name>
CHEMBL23338

> <IUPAC>
5-({3,4-dimethoxy-5-[(1E)-prop-1-en-1-yl]phenyl}methyl)pyrimidine-2,4-diamine

> <Collections>
TrainingSet_Kleb_p_ALPerryman_JSF

> <ChEMBL_Data_Neisseria_g: NUM_RO5_VIOLATIONS>
0

> <ChEMBL_Data_Neisseria_g: Qualifier_for_MIC_Ng>
=

> <ChEMBL_Data_Neisseria_g: ASSAY_CHEMBLID>
CHEMBL753614

> <ChEMBL_Data_Neisseria_g: DESCRIPTION_of_Assay_Ng>
Inhibition of growth of Neisseria gonorrhoeae

> <ChEMBL_Data_Neisseria_g: PUBMED_ID>
3121854

> <ChEMBL_Data_Neisseria_g: YEAR>
1988

> <ChEMBL_Data_Neisseria_g: JOURNAL>
J. Med. Chem.

> <ChEMBL_Data_Neisseria_g: VOLUME>
31

> <ChEMBL_Data_Neisseria_g: FIRST_PAGE>
122

> <ChEMBL_Data_Neisseria_g: MIC_vs_Neisseria_microg_per_mL>
33

> <ALogP>
2.513

> <Active>
0

> <Molecular_Weight>
300.356

$$$$

Generated by Molecular Materials Informatics

 28 30  0  0  0  0  0  0  0  0999 V2000
    7.9244   -0.5658    0.0000 C   0  0  0  0  0  0  0  0  0  0  0  0
    6.6255    0.1842    0.0000 O   0  0  0  0  0  0  0  0  0  0  0  0
    5.3264   -0.5658    0.0000 C   0  0  0  0  0  0  0  0  0  0  0  0
    4.0273    0.1842    0.0000 C   0  0  0  0  0  0  0  0  0  0  0  0
    2.7284   -0.5658    0.0000 C   0  0  0  0  0  0  0  0  0  0  0  0
    1.4293    0.1842    0.0000 N   0  0  0  0  0  0  0  0  0  0  0  0
    1.4293    1.6842    0.0000 C   0  0  0  0  0  0  0  0  0  0  0  0
    2.7284    2.4342    0.0000 S   0  0  0  0  0  0  0  0  0  0  0  0
    4.0273    1.6842    0.0000 C   0  0  0  0  0  0  0  0  0  0  0  0
   -0.0707    1.6842    0.0000 C   0  0  0  0  0  0  0  0  0  0  0  0
   -1.1314    2.7447    0.0000 N   0  0  0  0  0  0  0  0  0  0  0  0
   -2.5803    2.3566    0.0000 C   0  0  0  0  0  0  0  0  0  0  0  0
   -2.9685    0.9077    0.0000 O   0  0  0  0  0  0  0  0  0  0  0  0
   -3.6408    3.4173    0.0000 C   0  0  0  0  0  0  0  0  0  0  0  0
   -3.2527    4.8662    0.0000 N   0  0  0  0  0  0  0  0  0  0  0  0
   -1.8037    5.2544    0.0000 O   0  0  0  0  0  0  0  0  0  0  0  0
   -1.4156    6.7033    0.0000 C   0  0  0  0  0  0  0  0  0  0  0  0
   -5.0897    3.0291    0.0000 C   0  0  0  0  0  0  0  0  0  0  0  0
   -5.6274    1.6288    0.0000 C   0  0  0  0  0  0  0  0  0  0  0  0
   -7.1252    1.7071    0.0000 S   0  0  0  0  0  0  0  0  0  0  0  0
   -7.5136    3.1560    0.0000 C   0  0  0  0  0  0  0  0  0  0  0  0
   -8.9139    3.6937    0.0000 N   0  0  0  0  0  0  0  0  0  0  0  0
   -6.2556    3.9729    0.0000 N   0  0  0  0  0  0  0  0  0  0  0  0
   -0.0707    0.1842    0.0000 C   0  0  0  0  0  0  0  0  0  0  0  0
   -1.1314   -0.8765    0.0000 O   0  0  0  0  0  0  0  0  0  0  0  0
    2.7284   -2.0658    0.0000 C   0  0  0  0  0  0  0  0  0  0  0  0
    1.4293   -2.8158    0.0000 O   0  0  0  0  0  0  0  0  0  0  0  0
    4.0273   -2.8158    0.0000 O   0  0  0  0  0  0  0  0  0  0  0  0
  1  2  1  0  0  0  0
  2  3  1  0  0  0  0
  3  4  1  0  0  0  0
  4  5  2  0  0  0  0
  5  6  1  0  0  0  0
  7  6  1  1  0  0  0
  7  8  1  0  0  0  0
  8  9  1  0  0  0  0
  4  9  1  0  0  0  0
  7 10  1  0  0  0  0
 10 11  1  1  0  0  0
 11 12  1  0  0  0  0
 12 13  2  0  0  0  0
 12 14  1  0  0  0  0
 14 15  2  0  0  0  0
 15 16  1  0  0  0  0
 16 17  1  0  0  0  0
 14 18  1  0  0  0  0
 18 19  2  0  0  0  0
 19 20  1  0  0  0  0
 20 21  1  0  0  0  0
 21 22  1  0  0  0  0
 21 23  2  0  0  0  0
 18 23  1  0  0  0  0
 10 24  1  0  0  0  0
  6 24  1  0  0  0  0
 24 25  2  0  0  0  0
  5 26  1  0  0  0  0
 26 27  2  0  0  0  0
 26 28  1  0  0  0  0
M  END
> <Molecule Name>
CHEMBL1672

> <CDD Number>
CDD-47857

> <IUPAC>
(6R,7R)-7-[(2Z)-2-(2-amino-1,3-thiazol-4-yl)-2-(methoxyimino)acetamido]-3-(methoxymethyl)-8-oxo-5-thia-1-azabicyclo[4.2.0]oct-2-ene-2-carboxylic acid

> <Collections>
Set2_NotListedAsBetaLactamResistant (mostly)

> <ChEMBL_Data_Neisseria_g: Molecule_Preferred_NAME>
CEFPODOXIME

> <ChEMBL_Data_Neisseria_g: NUM_RO5_VIOLATIONS>
0

> <ChEMBL_Data_Neisseria_g: Qualifier_for_MIC_Ng>
=

> <ChEMBL_Data_Neisseria_g: ASSAY_CHEMBLID>
CHEMBL1666514

> <ChEMBL_Data_Neisseria_g: DESCRIPTION_of_Assay_Ng>
Antibacterial activity against Neisseria gonorrhoeae isolate SM3 expressing SF-A mosaic penA allele by agar dilution method

> <ChEMBL_Data_Neisseria_g: PUBMED_ID>
19546370

> <ChEMBL_Data_Neisseria_g: YEAR>
2009

> <ChEMBL_Data_Neisseria_g: JOURNAL>
Antimicrob. Agents Chemother.

> <ChEMBL_Data_Neisseria_g: VOLUME>
53

> <ChEMBL_Data_Neisseria_g: FIRST_PAGE>
4032

> <ChEMBL_Data_Neisseria_g: MIC_vs_Neisseria_microg_per_mL>
1

> <ALogP>
-0.88

> <Active>
1

> <Molecular_Weight>
427.455

> <ChEMBL_Data_Neisseria_g: STRAIN_of_Ng>
isolate SM3

$$$$

Generated by Molecular Materials Informatics

 36 39  0  0  0  0  0  0  0  0999 V2000
   -5.4077    0.9130    0.0000 C   0  0  0  0  0  0  0  0  0  0  0  0
   -3.9590    1.3012    0.0000 O   0  0  0  0  0  0  0  0  0  0  0  0
   -3.5707    2.7501    0.0000 N   0  0  0  0  0  0  0  0  0  0  0  0
   -2.1218    3.1382    0.0000 C   0  0  0  0  0  0  0  0  0  0  0  0
   -1.0612    2.0777    0.0000 C   0  0  0  0  0  0  0  0  0  0  0  0
    0.3877    2.4659    0.0000 O   0  0  0  0  0  0  0  0  0  0  0  0
   -1.4494    0.6288    0.0000 N   0  0  0  0  0  0  0  0  0  0  0  0
   -0.3887   -0.4319    0.0000 C   0  0  0  0  0  0  0  0  0  0  0  0
    1.1113   -0.4319    0.0000 C   0  0  0  0  0  0  0  0  0  0  0  0
    2.4102    0.3181    0.0000 S   0  0  0  0  0  0  0  0  0  0  0  0
    3.7093   -0.4319    0.0000 C   0  0  0  0  0  0  0  0  0  0  0  0
    3.7093   -1.9319    0.0000 C   0  0  0  0  0  0  0  0  0  0  0  0
    2.4102   -2.6819    0.0000 C   0  0  0  0  0  0  0  0  0  0  0  0
    1.1113   -1.9319    0.0000 N   0  0  0  0  0  0  0  0  0  0  0  0
   -0.3887   -1.9319    0.0000 C   0  0  0  0  0  0  0  0  0  0  0  0
   -1.4494   -2.9925    0.0000 O   0  0  0  0  0  0  0  0  0  0  0  0
    2.4102   -4.1819    0.0000 C   0  0  0  0  0  0  0  0  0  0  0  0
    1.1113   -4.9319    0.0000 O   0  0  0  0  0  0  0  0  0  0  0  0
    3.7093   -4.9319    0.0000 O   0  0  0  0  0  0  0  0  0  0  0  0
    5.0084   -2.6819    0.0000 C   0  0  0  0  0  0  0  0  0  0  0  0
    5.0084   -4.1819    0.0000 S   0  0  0  0  0  0  0  0  0  0  0  0
    6.3073   -4.9319    0.0000 C   0  0  0  0  0  0  0  0  0  0  0  0
    7.6064   -4.1819    0.0000 N   0  0  0  0  0  0  0  0  0  0  0  0
    8.9055   -4.9319    0.0000 C   0  0  0  0  0  0  0  0  0  0  0  0
   10.2045   -4.1819    0.0000 O   0  0  0  0  0  0  0  0  0  0  0  0
    8.9055   -6.4319    0.0000 C   0  0  0  0  0  0  0  0  0  0  0  0
    7.6064   -7.1819    0.0000 N   0  0  0  0  0  0  0  0  0  0  0  0
    6.3073   -6.4319    0.0000 N   0  0  0  0  0  0  0  0  0  0  0  0
    5.0084   -7.1819    0.0000 C   0  0  0  0  0  0  0  0  0  0  0  0
   10.2045   -7.1819    0.0000 O   0  0  0  0  0  0  0  0  0  0  0  0
   -1.7336    4.5871    0.0000 C   0  0  0  0  0  0  0  0  0  0  0  0
   -2.6776    5.7530    0.0000 C   0  0  0  0  0  0  0  0  0  0  0  0
   -1.8607    7.0110    0.0000 S   0  0  0  0  0  0  0  0  0  0  0  0
   -0.4118    6.6226    0.0000 C   0  0  0  0  0  0  0  0  0  0  0  0
    0.7540    7.5666    0.0000 N   0  0  0  0  0  0  0  0  0  0  0  0
   -0.3332    5.1248    0.0000 N   0  0  0  0  0  0  0  0  0  0  0  0
  1  2  1  0  0  0  0
  2  3  1  0  0  0  0
  3  4  2  0  0  0  0
  4  5  1  0  0  0  0
  5  6  2  0  0  0  0
  5  7  1  0  0  0  0
  8  7  1  1  0  0  0
  8  9  1  0  0  0  0
  9 10  1  0  0  0  0
 10 11  1  0  0  0  0
 11 12  1  0  0  0  0
 12 13  2  0  0  0  0
 13 14  1  0  0  0  0
  9 14  1  1  0  0  0
 14 15  1  0  0  0  0
  8 15  1  0  0  0  0
 15 16  2  0  0  0  0
 13 17  1  0  0  0  0
 17 18  2  0  0  0  0
 17 19  1  0  0  0  0
 12 20  1  0  0  0  0
 20 21  1  0  0  0  0
 21 22  1  0  0  0  0
 22 23  2  0  0  0  0
 23 24  1  0  0  0  0
 24 25  2  0  0  0  0
 24 26  1  0  0  0  0
 26 27  2  0  0  0  0
 27 28  1  0  0  0  0
 22 28  1  0  0  0  0
 28 29  1  0  0  0  0
 26 30  1  0  0  0  0
  4 31  1  0  0  0  0
 31 32  2  0  0  0  0
 32 33  1  0  0  0  0
 33 34  1  0  0  0  0
 34 35  1  0  0  0  0
 34 36  2  0  0  0  0
 31 36  1  0  0  0  0
M  END
> <Molecule Name>
CHEMBL161

> <CDD Number>
CDD-1376004

> <IUPAC>
(6R,7R)-7-[(2Z)-2-(2-amino-1,3-thiazol-4-yl)-2-(methoxyimino)acetamido]-3-{[(6-hydroxy-2-methyl-5-oxo-2,5-dihydro-1,2,4-triazin-3-yl)sulfanyl]methyl}-8-oxo-5-thia-1-azabicyclo[4.2.0]oct-2-ene-2-carbox
ylic acid

> <Collections>
BetaLactamResistant_or_MDR
Set2_NotListedAsBetaLactamResistant (mostly)
TrainingSet_Kleb_p_ALPerryman_JSF

> <ChEMBL_Data_Neisseria_g: Molecule_Preferred_NAME>
CEFTRIAXONE

> <ChEMBL_Data_Neisseria_g: NUM_RO5_VIOLATIONS>
2

> <ChEMBL_Data_Neisseria_g: Qualifier_for_MIC_Ng>
=

> <ChEMBL_Data_Neisseria_g: ASSAY_CHEMBLID>
CHEMBL1282092

> <ChEMBL_Data_Neisseria_g: DESCRIPTION_of_Assay_Ng>
Antimicrobial activity against penicillin-,ofloxacin- and tetracyclin-resistant Neisseria gonorrhoeae multiantigen sequence type 835 isolate 8 harboring penA gene by Etest

> <ChEMBL_Data_Neisseria_g: PUBMED_ID>
18663018

> <ChEMBL_Data_Neisseria_g: YEAR>
2008

> <ChEMBL_Data_Neisseria_g: JOURNAL>
Antimicrob. Agents Chemother.

> <ChEMBL_Data_Neisseria_g: VOLUME>
52

> <ChEMBL_Data_Neisseria_g: FIRST_PAGE>
3564

> <ChEMBL_Data_Neisseria_g: MIC_vs_Neisseria_microg_per_mL>
0.125

> <ALogP>
-0.273

> <Active>
1

> <Molecular_Weight>
554.58

> <ChEMBL_Data_Neisseria_g: STRAIN_of_Ng>
isolate 8

$$$$

Generated by Molecular Materials Informatics

 12 12  0  0  0  0  0  0  0  0999 V2000
    1.2800    3.3746    0.0000 C   0  0  0  0  0  0  0  0  0  0  0  0
    1.2800    1.8747    0.0000 C   0  0  0  0  0  0  0  0  0  0  0  0
    2.4934    0.9931    0.0000 N   0  0  0  0  0  0  0  0  0  0  0  0
    2.0299   -0.4336    0.0000 C   0  0  0  0  0  0  0  0  0  0  0  0
    0.5300   -0.4336    0.0000 C   0  0  0  0  0  0  0  0  0  0  0  0
   -0.3518   -1.6471    0.0000 N   0  4  0  0  0  0  0  0  0  0  0  0
    0.2583   -3.0174    0.0000 O   0  0  0  0  0  0  0  0  0  0  0  0
   -1.8434   -1.4903    0.0000 O   0  5  0  0  0  0  0  0  0  0  0  0
    0.0663    0.9931    0.0000 N   0  0  0  0  0  0  0  0  0  0  0  0
   -1.3602    1.4565    0.0000 C   0  0  0  0  0  0  0  0  0  0  0  0
   -1.6720    2.9237    0.0000 C   0  0  0  0  0  0  0  0  0  0  0  0
   -3.0987    3.3872    0.0000 O   0  0  0  0  0  0  0  0  0  0  0  0
  1  2  1  0  0  0  0
  2  3  2  0  0  0  0
  3  4  1  0  0  0  0
  4  5  2  0  0  0  0
  5  6  1  0  0  0  0
  6  7  2  0  0  0  0
  6  8  1  0  0  0  0
  5  9  1  0  0  0  0
  2  9  1  0  0  0  0
  9 10  1  0  0  0  0
 10 11  1  0  0  0  0
 11 12  1  0  0  0  0
M  CHG  1   8  -1
M  RAD  1   6   2
M  END
> <Molecule Name>
ChemBank_683

> <IUPAC>
{hydroxy[1-(2-hydroxyethyl)-2-methyl-1H-imidazol-5-yl]amino}oxidanyl

> <Collections>
Set2_NotListedAsBetaLactamResistant (mostly)

> <ChEMBL_Data_Neisseria_g: Molecule_Preferred_NAME>
METRONIDAZOLE

> <ChEMBL_Data_Neisseria_g: NUM_RO5_VIOLATIONS>
0

> <ChEMBL_Data_Neisseria_g: Qualifier_for_MIC_Ng>
>

> <ChEMBL_Data_Neisseria_g: ASSAY_CHEMBLID>
CHEMBL754486

> <ChEMBL_Data_Neisseria_g: DESCRIPTION_of_Assay_Ng>
Compound was evaluated for antimicrobial activity against Neisseria gonorrhoeae

> <ChEMBL_Data_Neisseria_g: PUBMED_ID>
9871756

> <ChEMBL_Data_Neisseria_g: YEAR>
1998

> <ChEMBL_Data_Neisseria_g: JOURNAL>
Bioorg. Med. Chem. Lett.

> <ChEMBL_Data_Neisseria_g: VOLUME>
8

> <ChEMBL_Data_Neisseria_g: FIRST_PAGE>
1307

> <ChEMBL_Data_Neisseria_g: MIC_vs_Neisseria_microg_per_mL>
100

> <ALogP>
-0.337

> <Active>
0

> <Molecular_Weight>
171.154

$$$$
Kanamycin
Generated by Molecular Materials Informatics

 33 35  0  0  0  0  0  0  0  0999 V2000
    8.2120   -3.7489    0.0000 O   0  0  0  0  0  0  0  0  0  0  0  0
    5.6768   -8.2924    0.0000 O   0  0  0  0  0  0  0  0  0  0  0  0
   10.8185   -3.7346    0.0000 O   0  0  0  0  0  0  0  0  0  0  0  0
    3.0846   -8.3066    0.0000 O   0  0  0  0  0  0  0  0  0  0  0  0
    5.6340   -5.2872    0.0000 O   0  0  0  0  0  0  0  0  0  0  0  0
    8.1836   -0.7436    0.0000 O   0  0  0  0  0  0  0  0  0  0  0  0
    5.7053  -11.2834    0.0000 O   0  0  0  0  0  0  0  0  0  0  0  0
   10.7758    0.7804    0.0000 O   0  0  0  0  0  0  0  0  0  0  0  0
   13.3964   -0.7151    0.0000 O   0  0  0  0  0  0  0  0  0  0  0  0
    0.4923  -11.3261    0.0000 O   0  0  0  0  0  0  0  0  0  0  0  0
   -0.8180   -9.0757    0.0000 O   0  0  0  0  0  0  0  0  0  0  0  0
   10.8470   -5.2159    0.0000 N   0  0  0  0  0  0  0  0  0  0  0  0
    8.2974   -9.7594    0.0000 N   0  0  0  0  0  0  0  0  0  0  0  0
    3.1130  -12.8074    0.0000 N   0  0  0  0  0  0  0  0  0  0  0  0
   13.4249   -5.2159    0.0000 N   0  0  0  0  0  0  0  0  0  0  0  0
    8.2405   -5.2444    0.0000 C   0  0  0  0  0  0  0  0  0  0  0  0
    6.8875   -7.5232    0.0000 C   0  0  0  0  0  0  0  0  0  0  0  0
    6.9444   -6.0277    0.0000 C   0  0  0  0  0  0  0  0  0  0  0  0
    9.4369   -2.9940    0.0000 C   0  0  0  0  0  0  0  0  0  0  0  0
    4.3806   -9.0473    0.0000 C   0  0  0  0  0  0  0  0  0  0  0  0
    9.5509   -5.9850    0.0000 C   0  0  0  0  0  0  0  0  0  0  0  0
    8.2832   -8.2497    0.0000 C   0  0  0  0  0  0  0  0  0  0  0  0
    9.4939   -1.4985    0.0000 C   0  0  0  0  0  0  0  0  0  0  0  0
    4.3949  -10.5570    0.0000 C   0  0  0  0  0  0  0  0  0  0  0  0
   10.7901   -0.7293    0.0000 C   0  0  0  0  0  0  0  0  0  0  0  0
    9.5652   -7.4947    0.0000 C   0  0  0  0  0  0  0  0  0  0  0  0
    3.0988  -11.3119    0.0000 C   0  0  0  0  0  0  0  0  0  0  0  0
   12.1004   -1.4700    0.0000 C   0  0  0  0  0  0  0  0  0  0  0  0
   12.1146   -2.9797    0.0000 C   0  0  0  0  0  0  0  0  0  0  0  0
    1.7885  -10.5712    0.0000 C   0  0  0  0  0  0  0  0  0  0  0  0
    1.7885   -9.0615    0.0000 C   0  0  0  0  0  0  0  0  0  0  0  0
   13.4107   -3.7204    0.0000 C   0  0  0  0  0  0  0  0  0  0  0  0
    0.4781   -8.3208    0.0000 C   0  0  0  0  0  0  0  0  0  0  0  0
 16  1  1  6  0  0  0
 19  1  1  6  0  0  0
 17  2  1  6  0  0  0
 20  2  1  6  0  0  0
  3 19  1  0  0  0  0
  3 29  1  0  0  0  0
  4 20  1  0  0  0  0
  4 31  1  0  0  0  0
 18  5  1  1  0  0  0
 23  6  1  6  0  0  0
 24  7  1  6  0  0  0
 25  8  1  1  0  0  0
 28  9  1  6  0  0  0
 30 10  1  6  0  0  0
 11 33  1  0  0  0  0
 21 12  1  1  0  0  0
 22 13  1  1  0  0  0
 27 14  1  1  0  0  0
 15 32  1  0  0  0  0
 16 18  1  0  0  0  0
 16 21  1  0  0  0  0
 17 18  1  0  0  0  0
 17 22  1  0  0  0  0
 19 23  1  0  0  0  0
 20 24  1  0  0  0  0
 21 26  1  0  0  0  0
 22 26  1  0  0  0  0
 23 25  1  0  0  0  0
 24 27  1  0  0  0  0
 25 28  1  0  0  0  0
 27 30  1  0  0  0  0
 28 29  1  0  0  0  0
 29 32  1  1  0  0  0
 30 31  1  0  0  0  0
 31 33  1  1  0  0  0
M  END
> <Molecule Name>
AntiTB_Kanamycin

> <CDD Number>
CDD-1756

> <IUPAC>
(2R,3S,4S,5R,6R)-2-(aminomethyl)-6-{[(1R,2R,3S,4R,6S)-4,6-diamino-3-{[(2S,3R,4S,5S,6R)-4-amino-3,5-dihydroxy-6-(hydroxymethyl)oxan-2-yl]oxy}-2-hydroxycyclohexyl]oxy}oxane-3,4,5-triol

> <Collections>
BetaLactamResistant_or_MDR
DartoisSet_AntiTuberculars
Set2_NotListedAsBetaLactamResistant (mostly)
TrainingSet_Kleb_p_ALPerryman_JSF

> <ChEMBL_Data_Neisseria_g: Molecule_Preferred_NAME>
KANAMYCIN

> <ChEMBL_Data_Neisseria_g: NUM_RO5_VIOLATIONS>
2

> <ChEMBL_Data_Neisseria_g: Qualifier_for_MIC_Ng>
=

> <ChEMBL_Data_Neisseria_g: ASSAY_CHEMBLID>
CHEMBL1691749

> <ChEMBL_Data_Neisseria_g: DESCRIPTION_of_Assay_Ng>
Antibacterial activity against Neisseria gonorrhoeae

> <ChEMBL_Data_Neisseria_g: PUBMED_ID>
19822705

> <ChEMBL_Data_Neisseria_g: YEAR>
2010

> <ChEMBL_Data_Neisseria_g: JOURNAL>
Antimicrob. Agents Chemother.

> <ChEMBL_Data_Neisseria_g: VOLUME>
54

> <ChEMBL_Data_Neisseria_g: FIRST_PAGE>
312

> <ChEMBL_Data_Neisseria_g: MIC_vs_Neisseria_microg_per_mL>
2

> <ALogP>
-7.144

> <Active>
1

> <Molecular_Weight>
484.499

$$$$

Generated by Molecular Materials Informatics

 20 23  0  0  0  0  0  0  0  0999 V2000
    6.7781   -3.2655    0.0000 C   0  0  0  0  0  0  0  0  0  0  0  0
    5.8836   -4.1770    0.0000 C   0  0  0  0  0  0  0  0  0  0  0  0
    8.1837   -3.8022    0.0000 C   0  0  0  0  0  0  0  0  0  0  0  0
    5.8581   -5.6592    0.0000 O   0  0  0  0  0  0  0  0  0  0  0  0
    7.2381   -6.1959    0.0000 C   0  0  0  0  0  0  0  0  0  0  0  0
    5.0914   -3.2569    0.0000 O   0  0  0  0  0  0  0  0  0  0  0  0
    4.3503   -4.1770    0.0000 O   0  0  0  0  0  0  0  0  0  0  0  0
    6.5481   -1.8002    0.0000 C   0  0  0  0  0  0  0  0  0  0  0  0
    3.0469   -3.2911    0.0000 C   0  0  0  0  0  0  0  0  0  0  0  0
    8.4137   -5.2759    0.0000 C   0  0  0  0  0  0  0  0  0  0  0  0
    4.6484   -2.0644    0.0000 O   0  0  0  0  0  0  0  0  0  0  0  0
    9.3337   -2.8566    0.0000 C   0  0  0  0  0  0  0  0  0  0  0  0
    4.9125   -1.0847    0.0000 C   0  0  0  0  0  0  0  0  0  0  0  0
    7.4681   -7.6782    0.0000 O   0  0  0  0  0  0  0  0  0  0  0  0
    7.6981   -0.8377    0.0000 C   0  0  0  0  0  0  0  0  0  0  0  0
    9.1037   -1.3744    0.0000 C   0  0  0  0  0  0  0  0  0  0  0  0
    3.4558   -1.7491    0.0000 C   0  0  0  0  0  0  0  0  0  0  0  0
    1.5135   -3.9811    0.0000 C   0  0  0  0  0  0  0  0  0  0  0  0
    9.8449   -5.6592    0.0000 C   0  0  0  0  0  0  0  0  0  0  0  0
    7.6981    0.6532    0.0000 C   0  0  0  0  0  0  0  0  0  0  0  0
  2  1  1  0  0  0  0
  3  1  1  0  0  0  0
  2  4  1  6  0  0  0
  5 10  1  0  0  0  0
  1  6  1  6  0  0  0
  7  2  1  0  0  0  0
  8  1  1  0  0  0  0
  9 11  1  6  0  0  0
 10  3  1  0  0  0  0
 11  6  1  0  0  0  0
  3 12  1  1  0  0  0
  8 13  1  1  0  0  0
 14  5  2  0  0  0  0
 15  8  1  0  0  0  0
 16 15  1  0  0  0  0
 17 13  1  0  0  0  0
  9 18  1  1  0  0  0
 10 19  1  1  0  0  0
 15 20  1  6  0  0  0
 16 12  1  0  0  0  0
  9 17  1  0  0  0  0
  7  9  1  0  0  0  0
  5  4  1  0  0  0  0
M  END
> <Molecule Name>
1503042

> <CDD Number>
CDD-1010580

> <IUPAC>
(1S,4S,5R,8S,9R,12S,13R)-1,5,9-trimethyl-11,14,15,16-tetraoxatetracyclo[10.3.1.0,.0,]hexadecan-10-one

> <ChEMBL_Data_Neisseria_g: Molecule_Preferred_NAME>
ARTEMISININ

> <ChEMBL_Data_Neisseria_g: NUM_RO5_VIOLATIONS>
0

> <ChEMBL_Data_Neisseria_g: Qualifier_for_MIC_Ng>
>

> <ChEMBL_Data_Neisseria_g: ASSAY_CHEMBLID>
CHEMBL1023219

> <ChEMBL_Data_Neisseria_g: DESCRIPTION_of_Assay_Ng>
Antimicrobial activity against Neisseria gonorrhoeae

> <ChEMBL_Data_Neisseria_g: PUBMED_ID>
6387056

> <ChEMBL_Data_Neisseria_g: YEAR>
1984

> <ChEMBL_Data_Neisseria_g: JOURNAL>
J. Nat. Prod.

> <ChEMBL_Data_Neisseria_g: VOLUME>
47

> <ChEMBL_Data_Neisseria_g: FIRST_PAGE>
715

> <ChEMBL_Data_Neisseria_g: MIC_vs_Neisseria_microg_per_mL>
1

> <ALogP>
1.998

> <Active>
1

> <Molecular_Weight>
282.332

$$$$

Generated by Molecular Materials Informatics

 59 63  0  0  0  0  0  0  0  0999 V2000
    7.3521    8.0289    0.0000 C   0  0  0  0  0  0  0  0  0  0  0  0
    5.8708    7.7922    0.0000 O   0  0  0  0  0  0  0  0  0  0  0  0
    5.3352    6.3912    0.0000 C   0  0  0  0  0  0  0  0  0  0  0  0
    6.6664    5.6831    0.0000 C   0  0  0  0  0  0  0  0  0  0  0  0
    7.8018    4.6656    0.0000 C   0  0  0  0  0  0  0  0  0  0  0  0
    8.8129    3.4844    0.0000 O   0  0  0  0  0  0  0  0  0  0  0  0
    8.8725    1.9169    0.0000 C   0  0  0  0  0  0  0  0  0  0  0  0
    9.7443    0.6962    0.0000 C   0  0  0  0  0  0  0  0  0  0  0  0
    7.4733    2.4567    0.0000 O   0  0  0  0  0  0  0  0  0  0  0  0
    6.4359    1.3896    0.0000 C   0  0  0  0  0  0  0  0  0  0  0  0
    7.1975    0.0693    0.0000 C   0  0  0  0  0  0  0  0  0  0  0  0
    8.7056    0.3871    0.0000 C   0  0  0  0  0  0  0  0  0  0  0  0
    9.8174   -0.6197    0.0000 O   0  0  0  0  0  0  0  0  0  0  0  0
    6.3203   -1.2484    0.0000 C   0  0  0  0  0  0  0  0  0  0  0  0
    6.8795   -2.6733    0.0000 C   0  0  0  0  0  0  0  0  0  0  0  0
    8.3647   -2.8829    0.0000 O   0  0  0  0  0  0  0  0  0  0  0  0
    5.9834   -3.8407    0.0000 C   0  0  0  0  0  0  0  0  0  0  0  0
    6.6003   -5.2079    0.0000 C   0  0  0  0  0  0  0  0  0  0  0  0
    5.7247   -6.4258    0.0000 N   0  0  0  0  0  0  0  0  0  0  0  0
    6.3414   -7.7930    0.0000 N   0  0  0  0  0  0  0  0  0  0  0  0
    7.8338   -7.9423    0.0000 C   0  0  0  0  0  0  0  0  0  0  0  0
    8.4507   -9.3095    0.0000 C   0  0  0  0  0  0  0  0  0  0  0  0
    7.5751  -10.5275    0.0000 N   0  0  0  0  0  0  0  0  0  0  0  0
    8.1920  -11.8947    0.0000 C   0  0  0  0  0  0  0  0  0  0  0  0
    6.0827  -10.3780    0.0000 C   0  0  0  0  0  0  0  0  0  0  0  0
    5.4658   -9.0108    0.0000 C   0  0  0  0  0  0  0  0  0  0  0  0
    4.4604   -3.7361    0.0000 C   0  0  0  0  0  0  0  0  0  0  0  0
    2.9713   -4.2388    0.0000 N   0  0  0  0  0  0  0  0  0  0  0  0
    1.4280   -4.2758    0.0000 C   0  0  0  0  0  0  0  0  0  0  0  0
    1.1562   -5.7508    0.0000 O   0  0  0  0  0  0  0  0  0  0  0  0
   -0.0434   -3.6736    0.0000 C   0  0  0  0  0  0  0  0  0  0  0  0
   -1.2315   -2.6316    0.0000 C   0  0  0  0  0  0  0  0  0  0  0  0
   -2.0837   -1.2666    0.0000 C   0  0  0  0  0  0  0  0  0  0  0  0
   -2.4968    0.1837    0.0000 C   0  0  0  0  0  0  0  0  0  0  0  0
   -2.5189    1.6936    0.0000 C   0  0  0  0  0  0  0  0  0  0  0  0
   -4.0087    1.8683    0.0000 C   0  0  0  0  0  0  0  0  0  0  0  0
   -2.1490    3.1535    0.0000 C   0  0  0  0  0  0  0  0  0  0  0  0
   -3.5423    3.7086    0.0000 O   0  0  0  0  0  0  0  0  0  0  0  0
   -1.4137    4.4678    0.0000 C   0  0  0  0  0  0  0  0  0  0  0  0
   -2.6160    5.3647    0.0000 C   0  0  0  0  0  0  0  0  0  0  0  0
   -0.3634    5.5472    0.0000 C   0  0  0  0  0  0  0  0  0  0  0  0
   -1.2926    6.7246    0.0000 O   0  0  0  0  0  0  0  0  0  0  0  0
    0.9302    6.3178    0.0000 C   0  0  0  0  0  0  0  0  0  0  0  0
    0.3371    7.6955    0.0000 C   0  0  0  0  0  0  0  0  0  0  0  0
    2.3781    6.7274    0.0000 C   0  0  0  0  0  0  0  0  0  0  0  0
    2.1608    8.2115    0.0000 O   0  0  0  0  0  0  0  0  0  0  0  0
    0.7671    8.7655    0.0000 C   0  0  0  0  0  0  0  0  0  0  0  0
   -0.4096    7.8353    0.0000 O   0  0  0  0  0  0  0  0  0  0  0  0
    0.5498   10.2496    0.0000 C   0  0  0  0  0  0  0  0  0  0  0  0
    3.8797    6.7497    0.0000 C   0  0  0  0  0  0  0  0  0  0  0  0
    4.0491    8.2400    0.0000 C   0  0  0  0  0  0  0  0  0  0  0  0
   -0.8328   -4.9490    0.0000 C   0  0  0  0  0  0  0  0  0  0  0  0
    3.9240   -2.3397    0.0000 C   0  0  0  0  0  0  0  0  0  0  0  0
    2.4350   -2.1595    0.0000 O   0  0  0  0  0  0  0  0  0  0  0  0
    4.7862   -1.0999    0.0000 C   0  0  0  0  0  0  0  0  0  0  0  0
    4.1144    0.2646    0.0000 C   0  0  0  0  0  0  0  0  0  0  0  0
    2.6165    0.3435    0.0000 O   0  0  0  0  0  0  0  0  0  0  0  0
    4.9143    1.5331    0.0000 C   0  0  0  0  0  0  0  0  0  0  0  0
    4.2524    2.8790    0.0000 C   0  0  0  0  0  0  0  0  0  0  0  0
  1  2  1  0  0  0  0
  3  2  1  1  0  0  0
  3  4  1  0  0  0  0
  4  5  2  0  0  0  0
  5  6  1  0  0  0  0
  6  7  1  0  0  0  0
  7  8  1  1  0  0  0
  7  9  1  0  0  0  0
  9 10  1  0  0  0  0
 10 11  1  0  0  0  0
 11 12  1  0  0  0  0
  7 12  1  0  0  0  0
 12 13  2  0  0  0  0
 11 14  2  0  0  0  0
 14 15  1  0  0  0  0
 15 16  1  0  0  0  0
 15 17  2  0  0  0  0
 17 18  1  0  0  0  0
 18 19  2  0  0  0  0
 19 20  1  0  0  0  0
 20 21  1  0  0  0  0
 21 22  1  0  0  0  0
 22 23  1  0  0  0  0
 23 24  1  0  0  0  0
 23 25  1  0  0  0  0
 25 26  1  0  0  0  0
 20 26  1  0  0  0  0
 17 27  1  0  0  0  0
 27 28  1  0  0  0  0
 28 29  1  0  0  0  0
 29 30  2  0  0  0  0
 29 31  1  0  0  0  0
 31 32  2  0  0  0  0
 32 33  1  0  0  0  0
 33 34  2  0  0  0  0
 34 35  1  0  0  0  0
 35 36  1  6  0  0  0
 35 37  1  0  0  0  0
 37 38  1  6  0  0  0
 37 39  1  0  0  0  0
 39 40  1  1  0  0  0
 39 41  1  0  0  0  0
 41 42  1  1  0  0  0
 41 43  1  0  0  0  0
 43 44  1  1  0  0  0
 43 45  1  0  0  0  0
 45 46  1  6  0  0  0
 46 47  1  0  0  0  0
 47 48  2  0  0  0  0
 47 49  1  0  0  0  0
 45 50  1  0  0  0  0
  3 50  1  0  0  0  0
 50 51  1  6  0  0  0
 31 52  1  0  0  0  0
 27 53  2  0  0  0  0
 53 54  1  0  0  0  0
 53 55  1  0  0  0  0
 14 55  1  0  0  0  0
 55 56  2  0  0  0  0
 56 57  1  0  0  0  0
 56 58  1  0  0  0  0
 10 58  2  0  0  0  0
 58 59  1  0  0  0  0
M  END
> <Molecule Name>
3189445

> <CDD Number>
CDD-1454

> <IUPAC>
(7S,9E,11S,12R,13S,14R,15R,16R,17S,18S,19E,21Z)-2,15,17,27,29-pentahydroxy-11-methoxy-3,7,12,14,16,18,22-heptamethyl-26-[(1E)-[(4-methylpiperazin-1-yl)imino]methyl]-6,23-dioxo-8,30-dioxa-24-azatetracy
clo[23.3.1.1,.0,]triaconta-1,3,5(28),9,19,21,25(29),26-octaen-13-yl acetate

> <Collections>
BetaLactamResistant_or_MDR
DartoisSet_AntiTuberculars
Set2_NotListedAsBetaLactamResistant (mostly)
TrainingSet_Kleb_p_ALPerryman_JSF

> <ChEMBL_Data_Neisseria_g: Molecule_Preferred_NAME>
RIFAMPICIN

> <ChEMBL_Data_Neisseria_g: NUM_RO5_VIOLATIONS>
3

> <ChEMBL_Data_Neisseria_g: Qualifier_for_MIC_Ng>
=

> <ChEMBL_Data_Neisseria_g: ASSAY_CHEMBLID>
CHEMBL750222

> <ChEMBL_Data_Neisseria_g: DESCRIPTION_of_Assay_Ng>
In vitro antibacterial activity of compound against Neisseria gonorrhoeae ISM 68/126

> <ChEMBL_Data_Neisseria_g: PUBMED_ID>
2329569

> <ChEMBL_Data_Neisseria_g: YEAR>
1990

> <ChEMBL_Data_Neisseria_g: JOURNAL>
J. Med. Chem.

> <ChEMBL_Data_Neisseria_g: VOLUME>
33

> <ChEMBL_Data_Neisseria_g: FIRST_PAGE>
1470

> <ChEMBL_Data_Neisseria_g: MIC_vs_Neisseria_microg_per_mL>
0.125

> <ALogP>
3.262

> <Active>
1

> <Molecular_Weight>
822.94

$$$$

Generated by Molecular Materials Informatics

 25 27  0  0  0  0  0  0  0  0999 V2000
    5.7749    0.3809    0.0000 C   0  0  0  0  0  0  0  0  0  0  0  0
    4.6602    1.3847    0.0000 C   0  0  0  0  0  0  0  0  0  0  0  0
    5.7749    2.3883    0.0000 C   0  0  0  0  0  0  0  0  0  0  0  0
    3.7786    0.1711    0.0000 S   0  0  0  0  0  0  0  0  0  0  0  0
    2.3519    0.6347    0.0000 C   0  0  0  0  0  0  0  0  0  0  0  0
    0.8519    0.6347    0.0000 C   0  0  0  0  0  0  0  0  0  0  0  0
   -0.2087   -0.4260    0.0000 N   0  0  0  0  0  0  0  0  0  0  0  0
   -1.6576   -0.0379    0.0000 C   0  0  0  0  0  0  0  0  0  0  0  0
   -2.0458    1.4110    0.0000 O   0  0  0  0  0  0  0  0  0  0  0  0
   -2.7183   -1.0984    0.0000 C   0  0  0  0  0  0  0  0  0  0  0  0
   -2.3299   -2.5473    0.0000 N   0  0  0  0  0  0  0  0  0  0  0  0
   -4.1672   -0.7102    0.0000 C   0  0  0  0  0  0  0  0  0  0  0  0
   -5.2277   -1.7709    0.0000 C   0  0  0  0  0  0  0  0  0  0  0  0
   -6.6766   -1.3826    0.0000 C   0  0  0  0  0  0  0  0  0  0  0  0
   -7.0648    0.0663    0.0000 C   0  0  0  0  0  0  0  0  0  0  0  0
   -8.5137    0.4545    0.0000 O   0  0  0  0  0  0  0  0  0  0  0  0
   -6.0043    1.1269    0.0000 C   0  0  0  0  0  0  0  0  0  0  0  0
   -4.5554    0.7387    0.0000 C   0  0  0  0  0  0  0  0  0  0  0  0
    0.8519    2.1347    0.0000 C   0  0  0  0  0  0  0  0  0  0  0  0
   -0.2087    3.1952    0.0000 O   0  0  0  0  0  0  0  0  0  0  0  0
    2.3519    2.1347    0.0000 N   0  0  0  0  0  0  0  0  0  0  0  0
    3.7786    2.5981    0.0000 C   0  0  0  0  0  0  0  0  0  0  0  0
    4.2420    4.0247    0.0000 C   0  0  0  0  0  0  0  0  0  0  0  0
    3.2384    5.1394    0.0000 O   0  0  0  0  0  0  0  0  0  0  0  0
    5.7093    4.3367    0.0000 O   0  0  0  0  0  0  0  0  0  0  0  0
  1  2  1  0  0  0  0
  2  3  1  0  0  0  0
  2  4  1  0  0  0  0
  4  5  1  0  0  0  0
  5  6  1  0  0  0  0
  6  7  1  6  0  0  0
  7  8  1  0  0  0  0
  8  9  2  0  0  0  0
  8 10  1  0  0  0  0
 10 11  1  6  0  0  0
 10 12  1  0  0  0  0
 12 13  2  0  0  0  0
 13 14  1  0  0  0  0
 14 15  2  0  0  0  0
 15 16  1  0  0  0  0
 15 17  1  0  0  0  0
 17 18  2  0  0  0  0
 12 18  1  0  0  0  0
  6 19  1  0  0  0  0
 19 20  2  0  0  0  0
 19 21  1  0  0  0  0
  5 21  1  6  0  0  0
 21 22  1  0  0  0  0
  2 22  1  0  0  0  0
 22 23  1  1  0  0  0
 23 24  2  0  0  0  0
 23 25  1  0  0  0  0
M  END
> <Molecule Name>
3189189

> <CDD Number>
CDD-1318

> <IUPAC>
(2S,5R,6R)-6-[(2R)-2-amino-2-(4-hydroxyphenyl)acetamido]-3,3-dimethyl-7-oxo-4-thia-1-azabicyclo[3.2.0]heptane-2-carboxylic acid

> <Collections>
BetaLactamResistant_or_MDR
DartoisSet_AntiTuberculars
Set2_NotListedAsBetaLactamResistant (mostly)
TestSet_MICsWereIn_microM_Kleb_p_ALPerryman_JSF
TrainingSet_Kleb_p_ALPerryman_JSF

> <ChEMBL_Data_Neisseria_g: Molecule_Preferred_NAME>
AMOXICILLIN

> <ChEMBL_Data_Neisseria_g: NUM_RO5_VIOLATIONS>
0

> <ChEMBL_Data_Neisseria_g: Qualifier_for_MIC_Ng>
=

> <ChEMBL_Data_Neisseria_g: ASSAY_CHEMBLID>
CHEMBL754486

> <ChEMBL_Data_Neisseria_g: DESCRIPTION_of_Assay_Ng>
Compound was evaluated for antimicrobial activity against Neisseria gonorrhoeae

> <ChEMBL_Data_Neisseria_g: PUBMED_ID>
9871756

> <ChEMBL_Data_Neisseria_g: YEAR>
1998

> <ChEMBL_Data_Neisseria_g: JOURNAL>
Bioorg. Med. Chem. Lett.

> <ChEMBL_Data_Neisseria_g: VOLUME>
8

> <ChEMBL_Data_Neisseria_g: FIRST_PAGE>
1307

> <ChEMBL_Data_Neisseria_g: MIC_vs_Neisseria_microg_per_mL>
7.7

> <ALogP>
-2.539

> <Active>
1

> <Molecular_Weight>
365.404

$$$$

Generated by Molecular Materials Informatics

 27 29  0  0  0  0  0  0  0  0999 V2000
   -6.9101    1.5030    0.0000 N   0  0  0  0  0  0  0  0  0  0  0  0
   -5.5097    0.9655    0.0000 C   0  0  0  0  0  0  0  0  0  0  0  0
   -4.2517    1.7824    0.0000 N   0  0  0  0  0  0  0  0  0  0  0  0
   -3.0859    0.8384    0.0000 C   0  0  0  0  0  0  0  0  0  0  0  0
   -3.6235   -0.5619    0.0000 C   0  0  0  0  0  0  0  0  0  0  0  0
   -5.1215   -0.4834    0.0000 S   0  0  0  0  0  0  0  0  0  0  0  0
   -1.6372    1.2266    0.0000 C   0  0  0  0  0  0  0  0  0  0  0  0
   -1.2488    2.6755    0.0000 C   0  0  0  0  0  0  0  0  0  0  0  0
    0.2001    3.0637    0.0000 C   0  0  0  0  0  0  0  0  0  0  0  0
    0.5883    4.5126    0.0000 C   0  0  0  0  0  0  0  0  0  0  0  0
   -0.4724    5.5733    0.0000 O   0  0  0  0  0  0  0  0  0  0  0  0
    2.0372    4.9008    0.0000 O   0  0  0  0  0  0  0  0  0  0  0  0
   -0.5764    0.1661    0.0000 C   0  0  0  0  0  0  0  0  0  0  0  0
   -0.9646   -1.2828    0.0000 O   0  0  0  0  0  0  0  0  0  0  0  0
    0.8725    0.5543    0.0000 N   0  0  0  0  0  0  0  0  0  0  0  0
    1.9332   -0.5065    0.0000 C   0  0  0  0  0  0  0  0  0  0  0  0
    3.4332   -0.5065    0.0000 C   0  0  0  0  0  0  0  0  0  0  0  0
    4.7321    0.2435    0.0000 S   0  0  0  0  0  0  0  0  0  0  0  0
    6.0312   -0.5065    0.0000 C   0  0  0  0  0  0  0  0  0  0  0  0
    6.0312   -2.0064    0.0000 C   0  0  0  0  0  0  0  0  0  0  0  0
    4.7321   -2.7564    0.0000 C   0  0  0  0  0  0  0  0  0  0  0  0
    3.4332   -2.0064    0.0000 N   0  0  0  0  0  0  0  0  0  0  0  0
    1.9332   -2.0064    0.0000 C   0  0  0  0  0  0  0  0  0  0  0  0
    0.8725   -3.0670    0.0000 O   0  0  0  0  0  0  0  0  0  0  0  0
    4.7321   -4.2564    0.0000 C   0  0  0  0  0  0  0  0  0  0  0  0
    6.0312   -5.0064    0.0000 O   0  0  0  0  0  0  0  0  0  0  0  0
    3.4332   -5.0064    0.0000 O   0  0  0  0  0  0  0  0  0  0  0  0
  1  2  1  0  0  0  0
  2  3  2  0  0  0  0
  3  4  1  0  0  0  0
  4  5  2  0  0  0  0
  5  6  1  0  0  0  0
  2  6  1  0  0  0  0
  4  7  1  0  0  0  0
  7  8  2  0  0  0  0
  8  9  1  0  0  0  0
  9 10  1  0  0  0  0
 10 11  2  0  0  0  0
 10 12  1  0  0  0  0
  7 13  1  0  0  0  0
 13 14  2  0  0  0  0
 13 15  1  0  0  0  0
 16 15  1  1  0  0  0
 16 17  1  0  0  0  0
 17 18  1  0  0  0  0
 18 19  1  0  0  0  0
 19 20  1  0  0  0  0
 20 21  2  0  0  0  0
 21 22  1  0  0  0  0
 17 22  1  1  0  0  0
 22 23  1  0  0  0  0
 16 23  1  0  0  0  0
 23 24  2  0  0  0  0
 21 25  1  0  0  0  0
 25 26  2  0  0  0  0
 25 27  1  0  0  0  0
M  END
> <Molecule Name>
3059791

> <CDD Number>
CDD-121

> <IUPAC>
(6R,7R)-7-[(2Z)-2-(2-amino-1,3-thiazol-4-yl)-4-carboxybut-2-enamido]-8-oxo-5-thia-1-azabicyclo[4.2.0]oct-2-ene-2-carboxylic acid

> <ChEMBL_Data_Neisseria_g: Molecule_Preferred_NAME>
CEFTIBUTEN

> <ChEMBL_Data_Neisseria_g: NUM_RO5_VIOLATIONS>
0

> <ChEMBL_Data_Neisseria_g: Qualifier_for_MIC_Ng>
=

> <ChEMBL_Data_Neisseria_g: ASSAY_CHEMBLID>
CHEMBL1282099

> <ChEMBL_Data_Neisseria_g: DESCRIPTION_of_Assay_Ng>
Antimicrobial activity against penicillin-,ofloxacin- and tetracyclin-resistant Neisseria gonorrhoeae multiantigen sequence type 835 isolate 4 harboring penA gene by agar dilution method

> <ChEMBL_Data_Neisseria_g: PUBMED_ID>
18663018

> <ChEMBL_Data_Neisseria_g: YEAR>
2008

> <ChEMBL_Data_Neisseria_g: JOURNAL>
Antimicrob. Agents Chemother.

> <ChEMBL_Data_Neisseria_g: VOLUME>
52

> <ChEMBL_Data_Neisseria_g: FIRST_PAGE>
3564

> <ChEMBL_Data_Neisseria_g: MIC_vs_Neisseria_microg_per_mL>
8

> <ALogP>
-0.544

> <Active>
1

> <Molecular_Weight>
410.425

> <ChEMBL_Data_Neisseria_g: STRAIN_of_Ng>
isolate 4

$$$$

Generated by Molecular Materials Informatics

 29 33  0  0  0  0  0  0  0  0999 V2000
    0.1696   -7.9167    0.0000 C   0  0  0  0  0  0  0  0  0  0  0  0
    0.1696   -6.4167    0.0000 O   0  0  0  0  0  0  0  0  0  0  0  0
    1.4687   -5.6666    0.0000 C   0  0  0  0  0  0  0  0  0  0  0  0
    1.4687   -4.1667    0.0000 C   0  0  0  0  0  0  0  0  0  0  0  0
    2.7677   -3.4167    0.0000 C   0  0  0  0  0  0  0  0  0  0  0  0
    4.0668   -4.1667    0.0000 C   0  0  0  0  0  0  0  0  0  0  0  0
    4.0668   -5.6666    0.0000 C   0  0  0  0  0  0  0  0  0  0  0  0
    5.3657   -6.4167    0.0000 O   0  0  0  0  0  0  0  0  0  0  0  0
    5.3657   -7.9167    0.0000 C   0  0  0  0  0  0  0  0  0  0  0  0
    2.7677   -6.4167    0.0000 C   0  0  0  0  0  0  0  0  0  0  0  0
    2.7677   -7.9167    0.0000 O   0  0  0  0  0  0  0  0  0  0  0  0
    1.4687   -8.6667    0.0000 C   0  0  0  0  0  0  0  0  0  0  0  0
    2.7677   -1.9167    0.0000 C   0  0  0  0  0  0  0  0  0  0  0  0
    1.4687   -1.1666    0.0000 C   0  0  0  0  0  0  0  0  0  0  0  0
    1.4687    0.3334    0.0000 C   0  0  0  0  0  0  0  0  0  0  0  0
    0.0421    0.7968    0.0000 C   0  0  0  0  0  0  0  0  0  0  0  0
   -0.8395   -0.4166    0.0000 O   0  0  0  0  0  0  0  0  0  0  0  0
    0.0421   -1.6303    0.0000 C   0  0  0  0  0  0  0  0  0  0  0  0
   -0.4213   -3.0568    0.0000 O   0  0  0  0  0  0  0  0  0  0  0  0
    2.7677    1.0834    0.0000 C   0  0  0  0  0  0  0  0  0  0  0  0
    4.0668    0.3334    0.0000 C   0  0  0  0  0  0  0  0  0  0  0  0
    5.3657    1.0834    0.0000 C   0  0  0  0  0  0  0  0  0  0  0  0
    6.6648    0.3334    0.0000 C   0  0  0  0  0  0  0  0  0  0  0  0
    8.0914    0.7968    0.0000 O   0  0  0  0  0  0  0  0  0  0  0  0
    8.9730   -0.4166    0.0000 C   0  0  0  0  0  0  0  0  0  0  0  0
    8.0914   -1.6303    0.0000 O   0  0  0  0  0  0  0  0  0  0  0  0
    6.6648   -1.1666    0.0000 C   0  0  0  0  0  0  0  0  0  0  0  0
    5.3657   -1.9167    0.0000 C   0  0  0  0  0  0  0  0  0  0  0  0
    4.0668   -1.1666    0.0000 C   0  0  0  0  0  0  0  0  0  0  0  0
  1  2  1  0  0  0  0
  2  3  1  0  0  0  0
  3  4  2  0  0  0  0
  4  5  1  0  0  0  0
  5  6  2  0  0  0  0
  6  7  1  0  0  0  0
  7  8  1  0  0  0  0
  8  9  1  0  0  0  0
  7 10  2  0  0  0  0
  3 10  1  0  0  0  0
 10 11  1  0  0  0  0
 11 12  1  0  0  0  0
  5 13  1  0  0  0  0
 13 14  1  0  0  0  0
 14 15  1  0  0  0  0
 15 16  1  0  0  0  0
 16 17  1  0  0  0  0
 17 18  1  0  0  0  0
 14 18  1  0  0  0  0
 18 19  2  0  0  0  0
 15 20  1  0  0  0  0
 20 21  1  0  0  0  0
 21 22  2  0  0  0  0
 22 23  1  0  0  0  0
 23 24  1  0  0  0  0
 24 25  1  0  0  0  0
 25 26  1  0  0  0  0
 26 27  1  0  0  0  0
 23 27  2  0  0  0  0
 27 28  1  0  0  0  0
 28 29  2  0  0  0  0
 13 29  1  0  0  0  0
 21 29  1  0  0  0  0
M  END
> <Molecule Name>
1102980

> <IUPAC>
10-(3,4,5-trimethoxyphenyl)-4,6,13-trioxatetracyclo[7.7.0.0,.0,]hexadeca-1,3(7),8-trien-12-one

> <ChEMBL_Data_Neisseria_g: Molecule_Preferred_NAME>
DEOXYPICROPODOPHYLLIN

> <ChEMBL_Data_Neisseria_g: NUM_RO5_VIOLATIONS>
0

> <ChEMBL_Data_Neisseria_g: Qualifier_for_MIC_Ng>
=

> <ChEMBL_Data_Neisseria_g: ASSAY_CHEMBLID>
CHEMBL1036073

> <ChEMBL_Data_Neisseria_g: DESCRIPTION_of_Assay_Ng>
Antimicrobial activity against Neisseria gonorrhoeae ATCC 49226 by antimicrobial susceptibility testing

> <ChEMBL_Data_Neisseria_g: PUBMED_ID>
14987061

> <ChEMBL_Data_Neisseria_g: YEAR>
2004

> <ChEMBL_Data_Neisseria_g: JOURNAL>
J. Nat. Prod.

> <ChEMBL_Data_Neisseria_g: VOLUME>
67

> <ChEMBL_Data_Neisseria_g: FIRST_PAGE>
214

> <ChEMBL_Data_Neisseria_g: MIC_vs_Neisseria_microg_per_mL>
32

> <ALogP>
3.208

> <Active>
0

> <Molecular_Weight>
398.406

$$$$

Generated by Molecular Materials Informatics

 26 29  0  0  0  0  0  0  0  0999 V2000
    5.3260   -4.4061    0.0000 C   0  0  0  0  0  0  0  0  0  0  0  0
    4.0270   -3.6562    0.0000 C   0  0  0  0  0  0  0  0  0  0  0  0
    2.7279   -4.4061    0.0000 C   0  0  0  0  0  0  0  0  0  0  0  0
    1.4289   -3.6562    0.0000 O   0  0  0  0  0  0  0  0  0  0  0  0
    1.4289   -2.1562    0.0000 C   0  0  0  0  0  0  0  0  0  0  0  0
    0.1300   -1.4062    0.0000 C   0  0  0  0  0  0  0  0  0  0  0  0
   -1.1691   -2.1562    0.0000 N   0  0  0  0  0  0  0  0  0  0  0  0
   -1.1691   -3.6562    0.0000 C   0  0  0  0  0  0  0  0  0  0  0  0
   -2.4681   -4.4061    0.0000 C   0  0  0  0  0  0  0  0  0  0  0  0
   -3.7670   -3.6562    0.0000 N   0  0  0  0  0  0  0  0  0  0  0  0
   -5.0660   -4.4061    0.0000 C   0  0  0  0  0  0  0  0  0  0  0  0
   -3.7670   -2.1562    0.0000 C   0  0  0  0  0  0  0  0  0  0  0  0
   -2.4681   -1.4062    0.0000 C   0  0  0  0  0  0  0  0  0  0  0  0
    0.1300    0.0937    0.0000 C   0  0  0  0  0  0  0  0  0  0  0  0
   -1.1691    0.8437    0.0000 F   0  0  0  0  0  0  0  0  0  0  0  0
    1.4289    0.8437    0.0000 C   0  0  0  0  0  0  0  0  0  0  0  0
    2.7279    0.0937    0.0000 C   0  0  0  0  0  0  0  0  0  0  0  0
    4.0270    0.8437    0.0000 C   0  0  0  0  0  0  0  0  0  0  0  0
    4.0270    2.3436    0.0000 O   0  0  0  0  0  0  0  0  0  0  0  0
    5.3260    0.0937    0.0000 C   0  0  0  0  0  0  0  0  0  0  0  0
    5.3260   -1.4062    0.0000 C   0  0  0  0  0  0  0  0  0  0  0  0
    4.0270   -2.1562    0.0000 N   0  0  0  0  0  0  0  0  0  0  0  0
    2.7279   -1.4062    0.0000 C   0  0  0  0  0  0  0  0  0  0  0  0
    6.6249    0.8437    0.0000 C   0  0  0  0  0  0  0  0  0  0  0  0
    6.6249    2.3436    0.0000 O   0  0  0  0  0  0  0  0  0  0  0  0
    7.9239    0.0937    0.0000 O   0  0  0  0  0  0  0  0  0  0  0  0
  2  1  1  1  0  0  0
  2  3  1  0  0  0  0
  3  4  1  0  0  0  0
  4  5  1  0  0  0  0
  5  6  1  0  0  0  0
  6  7  1  0  0  0  0
  7  8  1  0  0  0  0
  8  9  1  0  0  0  0
  9 10  1  0  0  0  0
 10 11  1  0  0  0  0
 10 12  1  0  0  0  0
 12 13  1  0  0  0  0
  7 13  1  0  0  0  0
  6 14  2  0  0  0  0
 14 15  1  0  0  0  0
 14 16  1  0  0  0  0
 16 17  2  0  0  0  0
 17 18  1  0  0  0  0
 18 19  2  0  0  0  0
 18 20  1  0  0  0  0
 20 21  2  0  0  0  0
 21 22  1  0  0  0  0
  2 22  1  0  0  0  0
 22 23  1  0  0  0  0
  5 23  2  0  0  0  0
 17 23  1  0  0  0  0
 20 24  1  0  0  0  0
 24 25  2  0  0  0  0
 24 26  1  0  0  0  0
M  END
> <Molecule Name>
1000155

> <CDD Number>
CDD-15297

> <IUPAC>
(2S)-7-fluoro-2-methyl-6-(4-methylpiperazin-1-yl)-10-oxo-4-oxa-1-azatricyclo[7.3.1.0,]trideca-5,7,9(13),11-tetraene-11-carboxylic acid

> <Collections>
BetaLactamResistant_or_MDR
DartoisSet_AntiTuberculars
Set2_NotListedAsBetaLactamResistant (mostly)
TestSet_MICsWereIn_microM_Kleb_p_ALPerryman_JSF
TrainingSet_Kleb_p_ALPerryman_JSF

> <ChEMBL_Data_Neisseria_g: Molecule_Preferred_NAME>
LEVOFLOXACIN

> <ChEMBL_Data_Neisseria_g: NUM_RO5_VIOLATIONS>
0

> <ChEMBL_Data_Neisseria_g: Qualifier_for_MIC_Ng>
=

> <ChEMBL_Data_Neisseria_g: ASSAY_CHEMBLID>
CHEMBL1247539

> <ChEMBL_Data_Neisseria_g: DESCRIPTION_of_Assay_Ng>
Antibacterial activity against ciprofloxacin resistant Neisseria gonorrhoeae isolates by broth dilution method

> <ChEMBL_Data_Neisseria_g: PUBMED_ID>
20065058

> <ChEMBL_Data_Neisseria_g: YEAR>
2010

> <ChEMBL_Data_Neisseria_g: JOURNAL>
Antimicrob. Agents Chemother.

> <ChEMBL_Data_Neisseria_g: VOLUME>
54

> <ChEMBL_Data_Neisseria_g: FIRST_PAGE>
1338

> <ChEMBL_Data_Neisseria_g: MIC_vs_Neisseria_microg_per_mL>
2

> <ALogP>
-1.374

> <Active>
1

> <Molecular_Weight>
361.368

$$$$

Generated by Molecular Materials Informatics

 17 18  0  0  0  0  0  0  0  0999 V2000
    0.8443    0.8812    0.0000 O   0  0  0  0  0  0  0  0  0  0  0  0
    0.8443   -0.6188    0.0000 C   0  0  0  0  0  0  0  0  0  0  0  0
    2.1434   -1.3688    0.0000 C   0  0  0  0  0  0  0  0  0  0  0  0
    2.1434   -2.8688    0.0000 C   0  0  0  0  0  0  0  0  0  0  0  0
    0.8443   -3.6188    0.0000 C   0  0  0  0  0  0  0  0  0  0  0  0
    0.8443   -5.1187    0.0000 C   0  0  0  0  0  0  0  0  0  0  0  0
    2.1434   -5.8687    0.0000 C   0  0  0  0  0  0  0  0  0  0  0  0
    2.1434   -7.3687    0.0000 C   0  0  0  0  0  0  0  0  0  0  0  0
    3.4424   -8.1187    0.0000 C   0  0  0  0  0  0  0  0  0  0  0  0
    3.4424   -9.6187    0.0000 C   0  0  0  0  0  0  0  0  0  0  0  0
    4.7415  -10.3687    0.0000 O   0  0  0  0  0  0  0  0  0  0  0  0
    2.1434  -10.3687    0.0000 C   0  0  0  0  0  0  0  0  0  0  0  0
    0.8443   -9.6187    0.0000 C   0  0  0  0  0  0  0  0  0  0  0  0
   -0.4546  -10.3687    0.0000 O   0  0  0  0  0  0  0  0  0  0  0  0
    0.8443   -8.1187    0.0000 C   0  0  0  0  0  0  0  0  0  0  0  0
   -0.4546   -2.8688    0.0000 C   0  0  0  0  0  0  0  0  0  0  0  0
   -0.4546   -1.3688    0.0000 C   0  0  0  0  0  0  0  0  0  0  0  0
  1  2  1  0  0  0  0
  2  3  2  0  0  0  0
  3  4  1  0  0  0  0
  4  5  2  0  0  0  0
  5  6  1  0  0  0  0
  6  7  2  0  0  0  0
  7  8  1  0  0  0  0
  8  9  2  0  0  0  0
  9 10  1  0  0  0  0
 10 11  1  0  0  0  0
 10 12  2  0  0  0  0
 12 13  1  0  0  0  0
 13 14  1  0  0  0  0
 13 15  2  0  0  0  0
  8 15  1  0  0  0  0
  5 16  1  0  0  0  0
 16 17  2  0  0  0  0
  2 17  1  0  0  0  0
M  END
> <Molecule Name>
2269

> <CDD Number>
CDD-45711

> <IUPAC>
5-[(E)-2-(4-hydroxyphenyl)ethenyl]benzene-1,3-diol

> <ChEMBL_Data_Neisseria_g: Molecule_Preferred_NAME>
RESVERATROL

> <ChEMBL_Data_Neisseria_g: NUM_RO5_VIOLATIONS>
0

> <ChEMBL_Data_Neisseria_g: Qualifier_for_MIC_Ng>
=

> <ChEMBL_Data_Neisseria_g: ASSAY_CHEMBLID>
CHEMBL753617

> <ChEMBL_Data_Neisseria_g: DESCRIPTION_of_Assay_Ng>
The minimum inhibitory concentration (MIC) that inhibits all visible growth of the Neisseria gonorrhoeae (bacteria)

> <ChEMBL_Data_Neisseria_g: PUBMED_ID>
12036362

> <ChEMBL_Data_Neisseria_g: YEAR>
2002

> <ChEMBL_Data_Neisseria_g: JOURNAL>
J. Med. Chem.

> <ChEMBL_Data_Neisseria_g: VOLUME>
45

> <ChEMBL_Data_Neisseria_g: FIRST_PAGE>
2534

> <ChEMBL_Data_Neisseria_g: MIC_vs_Neisseria_microg_per_mL>
16

> <ALogP>
3.09

> <Active>
0

> <Molecular_Weight>
228.243

$$$$

Generated by Molecular Materials Informatics

 21 23  0  0  0  0  0  0  0  0999 V2000
   -2.6305   -1.8187    0.0000 O   0  0  0  0  0  0  0  0  0  0  0  0
   -1.3314   -1.0687    0.0000 C   0  0  0  0  0  0  0  0  0  0  0  0
   -1.3314    0.4312    0.0000 C   0  0  0  0  0  0  0  0  0  0  0  0
   -0.0325    1.1812    0.0000 C   0  0  0  0  0  0  0  0  0  0  0  0
   -0.0325    2.6813    0.0000 O   0  0  0  0  0  0  0  0  0  0  0  0
    1.2666    0.4312    0.0000 C   0  0  0  0  0  0  0  0  0  0  0  0
    2.5656    1.1812    0.0000 C   0  0  0  0  0  0  0  0  0  0  0  0
    2.5656    2.6813    0.0000 O   0  0  0  0  0  0  0  0  0  0  0  0
    3.8647    0.4312    0.0000 C   0  0  0  0  0  0  0  0  0  0  0  0
    3.8647   -1.0687    0.0000 C   0  0  0  0  0  0  0  0  0  0  0  0
    2.5656   -1.8187    0.0000 O   0  0  0  0  0  0  0  0  0  0  0  0
    1.2666   -1.0687    0.0000 C   0  0  0  0  0  0  0  0  0  0  0  0
   -0.0325   -1.8187    0.0000 C   0  0  0  0  0  0  0  0  0  0  0  0
    5.1636   -1.8187    0.0000 C   0  0  0  0  0  0  0  0  0  0  0  0
    6.4627   -1.0687    0.0000 C   0  0  0  0  0  0  0  0  0  0  0  0
    7.7618   -1.8187    0.0000 C   0  0  0  0  0  0  0  0  0  0  0  0
    7.7618   -3.3187    0.0000 C   0  0  0  0  0  0  0  0  0  0  0  0
    9.0607   -4.0687    0.0000 O   0  0  0  0  0  0  0  0  0  0  0  0
    6.4627   -4.0687    0.0000 C   0  0  0  0  0  0  0  0  0  0  0  0
    6.4627   -5.5687    0.0000 O   0  0  0  0  0  0  0  0  0  0  0  0
    5.1636   -3.3187    0.0000 C   0  0  0  0  0  0  0  0  0  0  0  0
  1  2  1  0  0  0  0
  2  3  2  0  0  0  0
  3  4  1  0  0  0  0
  4  5  1  0  0  0  0
  4  6  2  0  0  0  0
  6  7  1  0  0  0  0
  7  8  2  0  0  0  0
  7  9  1  0  0  0  0
  9 10  2  0  0  0  0
 10 11  1  0  0  0  0
 11 12  1  0  0  0  0
  6 12  1  0  0  0  0
 12 13  2  0  0  0  0
  2 13  1  0  0  0  0
 10 14  1  0  0  0  0
 14 15  2  0  0  0  0
 15 16  1  0  0  0  0
 16 17  2  0  0  0  0
 17 18  1  0  0  0  0
 17 19  1  0  0  0  0
 19 20  1  0  0  0  0
 19 21  2  0  0  0  0
 14 21  1  0  0  0  0
M  END
> <Molecule Name>
2137

> <CDD Number>
CDD-1820

> <IUPAC>
2-(3,4-dihydroxyphenyl)-5,7-dihydroxy-4H-chromen-4-one

> <Collections>
Set2_NotListedAsBetaLactamResistant (mostly)
TrainingSet_Kleb_p_ALPerryman_JSF

> <ChEMBL_Data_Neisseria_g: Molecule_Preferred_NAME>
LUTEOLIN

> <ChEMBL_Data_Neisseria_g: NUM_RO5_VIOLATIONS>
0

> <ChEMBL_Data_Neisseria_g: Qualifier_for_MIC_Ng>
=

> <ChEMBL_Data_Neisseria_g: ASSAY_CHEMBLID>
CHEMBL1027460

> <ChEMBL_Data_Neisseria_g: DESCRIPTION_of_Assay_Ng>
Antimicrobial activity against Neisseria gonorrhoeae

> <ChEMBL_Data_Neisseria_g: PUBMED_ID>
12608861

> <ChEMBL_Data_Neisseria_g: YEAR>
2003

> <ChEMBL_Data_Neisseria_g: JOURNAL>
J. Nat. Prod.

> <ChEMBL_Data_Neisseria_g: VOLUME>
66

> <ChEMBL_Data_Neisseria_g: FIRST_PAGE>
259

> <ChEMBL_Data_Neisseria_g: MIC_vs_Neisseria_microg_per_mL>
16

> <ALogP>
2.168

> <Active>
0

> <Molecular_Weight>
286.236

$$$$

Generated by Molecular Materials Informatics

 32 35  0  0  0  0  0  0  0  0999 V2000
    7.4695    3.9938    0.0000 C   0  0  0  0  0  0  0  0  0  0  0  0
    6.1704    3.2438    0.0000 N   0  0  0  0  0  0  0  0  0  0  0  0
    4.8713    3.9938    0.0000 C   0  0  0  0  0  0  0  0  0  0  0  0
    6.1704    1.7437    0.0000 C   0  0  0  0  0  0  0  0  0  0  0  0
    4.8713    0.9937    0.0000 C   0  0  0  0  0  0  0  0  0  0  0  0
    3.5724    1.7437    0.0000 C   0  0  0  0  0  0  0  0  0  0  0  0
    2.2733    0.9937    0.0000 C   0  0  0  0  0  0  0  0  0  0  0  0
    2.2733   -0.5063    0.0000 C   0  0  0  0  0  0  0  0  0  0  0  0
    3.5724   -1.2563    0.0000 C   0  0  0  0  0  0  0  0  0  0  0  0
    3.5724   -2.7562    0.0000 O   0  0  0  0  0  0  0  0  0  0  0  0
    4.8713   -0.5063    0.0000 C   0  0  0  0  0  0  0  0  0  0  0  0
    4.8713   -2.0062    0.0000 O   0  0  0  0  0  0  0  0  0  0  0  0
    6.1704   -1.2563    0.0000 C   0  0  0  0  0  0  0  0  0  0  0  0
    6.1704   -2.7562    0.0000 O   0  0  0  0  0  0  0  0  0  0  0  0
    7.4695   -0.5063    0.0000 C   0  0  0  0  0  0  0  0  0  0  0  0
    7.4695    0.9937    0.0000 C   0  0  0  0  0  0  0  0  0  0  0  0
    8.7684    1.7437    0.0000 O   0  0  0  0  0  0  0  0  0  0  0  0
    8.7684   -1.2563    0.0000 C   0  0  0  0  0  0  0  0  0  0  0  0
   10.0675   -0.5063    0.0000 O   0  0  0  0  0  0  0  0  0  0  0  0
    8.7684   -2.7562    0.0000 N   0  0  0  0  0  0  0  0  0  0  0  0
    0.9743   -1.2563    0.0000 C   0  0  0  0  0  0  0  0  0  0  0  0
    0.9743   -2.7562    0.0000 O   0  0  0  0  0  0  0  0  0  0  0  0
   -0.3248   -0.5063    0.0000 C   0  0  0  0  0  0  0  0  0  0  0  0
   -1.6237   -1.2563    0.0000 C   0  0  0  0  0  0  0  0  0  0  0  0
   -1.6237   -2.7562    0.0000 O   0  0  0  0  0  0  0  0  0  0  0  0
   -2.9228   -0.5063    0.0000 C   0  0  0  0  0  0  0  0  0  0  0  0
   -2.9228    0.9937    0.0000 C   0  0  0  0  0  0  0  0  0  0  0  0
   -1.6237    1.7437    0.0000 C   0  0  0  0  0  0  0  0  0  0  0  0
   -0.3248    0.9937    0.0000 C   0  0  0  0  0  0  0  0  0  0  0  0
    0.9743    1.7437    0.0000 C   0  0  0  0  0  0  0  0  0  0  0  0
    0.2701    3.0681    0.0000 C   0  0  0  0  0  0  0  0  0  0  0  0
    1.6784    3.0681    0.0000 O   0  0  0  0  0  0  0  0  0  0  0  0
  1  2  1  0  0  0  0
  2  3  1  0  0  0  0
  4  2  1  6  0  0  0
  4  5  1  0  0  0  0
  5  6  1  1  0  0  0
  7  6  1  1  0  0  0
  7  8  1  0  0  0  0
  8  9  2  0  0  0  0
  9 10  1  0  0  0  0
  9 11  1  0  0  0  0
  5 11  1  0  0  0  0
 11 12  1  6  0  0  0
 11 13  1  0  0  0  0
 13 14  2  0  0  0  0
 13 15  1  0  0  0  0
 15 16  2  0  0  0  0
  4 16  1  0  0  0  0
 16 17  1  0  0  0  0
 15 18  1  0  0  0  0
 18 19  2  0  0  0  0
 18 20  1  0  0  0  0
  8 21  1  0  0  0  0
 21 22  2  0  0  0  0
 21 23  1  0  0  0  0
 23 24  2  0  0  0  0
 24 25  1  0  0  0  0
 24 26  1  0  0  0  0
 26 27  2  0  0  0  0
 27 28  1  0  0  0  0
 28 29  2  0  0  0  0
 23 29  1  0  0  0  0
 29 30  1  0  0  0  0
  7 30  1  0  0  0  0
 30 31  1  6  0  0  0
 30 32  1  1  0  0  0
M  END
> <Molecule Name>
1418

> <CDD Number>
CDD-14873

> <IUPAC>
(4S,4aS,5aS,6S,12aS)-4-(dimethylamino)-6,10,12,12a-tetrahydroxy-6-methyl-1,3,11-trioxo-1,2,3,4,4a,5,5a,6,11,12a-decahydrotetracene-2-carboxamide

> <Collections>
BetaLactamResistant_or_MDR
Set2_NotListedAsBetaLactamResistant (mostly)
TrainingSet_Kleb_p_ALPerryman_JSF

> <ChEMBL_Data_Neisseria_g: Molecule_Preferred_NAME>
TETRACYCLINE

> <ChEMBL_Data_Neisseria_g: NUM_RO5_VIOLATIONS>
1

> <ChEMBL_Data_Neisseria_g: Qualifier_for_MIC_Ng>
=

> <ChEMBL_Data_Neisseria_g: ASSAY_CHEMBLID>
CHEMBL3825481

> <ChEMBL_Data_Neisseria_g: DESCRIPTION_of_Assay_Ng>
Antibacterial activity against Neisseria gonorrhoeae F-18 ATCC 49226 by two fold serial dilution method

> <ChEMBL_Data_Neisseria_g: PUBMED_ID>
27387357

> <ChEMBL_Data_Neisseria_g: YEAR>
2016

> <ChEMBL_Data_Neisseria_g: JOURNAL>
Bioorg. Med. Chem.

> <ChEMBL_Data_Neisseria_g: VOLUME>
24

> <ChEMBL_Data_Neisseria_g: FIRST_PAGE>
4056

> <ChEMBL_Data_Neisseria_g: MIC_vs_Neisseria_microg_per_mL>
1

> <ALogP>
-0.895

> <Active>
1

> <Molecular_Weight>
444.435

> <ChEMBL_Data_Neisseria_g: STRAIN_of_Ng>
F-18 ATCC 49226

$$$$

Generated by Molecular Materials Informatics

 21 22  0  0  0  0  0  0  0  0999 V2000
    0.8443    2.5312    0.0000 C   0  0  0  0  0  0  0  0  0  0  0  0
    2.1434    1.7812    0.0000 O   0  0  0  0  0  0  0  0  0  0  0  0
    2.1434    0.2812    0.0000 C   0  0  0  0  0  0  0  0  0  0  0  0
    3.4425   -0.4688    0.0000 C   0  0  0  0  0  0  0  0  0  0  0  0
    3.4425   -1.9688    0.0000 C   0  0  0  0  0  0  0  0  0  0  0  0
    4.7415   -2.7188    0.0000 C   0  0  0  0  0  0  0  0  0  0  0  0
    4.7415   -4.2187    0.0000 C   0  0  0  0  0  0  0  0  0  0  0  0
    6.0404   -4.9687    0.0000 C   0  0  0  0  0  0  0  0  0  0  0  0
    6.0404   -6.4687    0.0000 N   0  0  0  0  0  0  0  0  0  0  0  0
    4.7415   -7.2187    0.0000 C   0  0  0  0  0  0  0  0  0  0  0  0
    4.7415   -8.7187    0.0000 N   0  0  0  0  0  0  0  0  0  0  0  0
    3.4425   -6.4687    0.0000 N   0  0  0  0  0  0  0  0  0  0  0  0
    3.4425   -4.9687    0.0000 C   0  0  0  0  0  0  0  0  0  0  0  0
    2.1434   -4.2187    0.0000 N   0  0  0  0  0  0  0  0  0  0  0  0
    2.1434   -2.7188    0.0000 C   0  0  0  0  0  0  0  0  0  0  0  0
    0.8443   -1.9688    0.0000 C   0  0  0  0  0  0  0  0  0  0  0  0
   -0.4546   -2.7188    0.0000 O   0  0  0  0  0  0  0  0  0  0  0  0
   -1.7536   -1.9688    0.0000 C   0  0  0  0  0  0  0  0  0  0  0  0
    0.8443   -0.4688    0.0000 C   0  0  0  0  0  0  0  0  0  0  0  0
   -0.4546    0.2812    0.0000 O   0  0  0  0  0  0  0  0  0  0  0  0
   -1.7536   -0.4688    0.0000 C   0  0  0  0  0  0  0  0  0  0  0  0
  1  2  1  0  0  0  0
  2  3  1  0  0  0  0
  3  4  2  0  0  0  0
  4  5  1  0  0  0  0
  5  6  1  0  0  0  0
  6  7  1  0  0  0  0
  7  8  2  0  0  0  0
  8  9  1  0  0  0  0
  9 10  2  0  0  0  0
 10 11  1  0  0  0  0
 10 12  1  0  0  0  0
 12 13  2  0  0  0  0
  7 13  1  0  0  0  0
 13 14  1  0  0  0  0
  5 15  2  0  0  0  0
 15 16  1  0  0  0  0
 16 17  1  0  0  0  0
 17 18  1  0  0  0  0
 16 19  2  0  0  0  0
  3 19  1  0  0  0  0
 19 20  1  0  0  0  0
 20 21  1  0  0  0  0
M  END
> <Molecule Name>
1201

> <CDD Number>
CDD-702

> <IUPAC>
5-[(3,4,5-trimethoxyphenyl)methyl]pyrimidine-2,4-diamine

> <Collections>
Set2_NotListedAsBetaLactamResistant (mostly)
TrainingSet_Kleb_p_ALPerryman_JSF

> <ChEMBL_Data_Neisseria_g: Molecule_Preferred_NAME>
TRIMETHOPRIM

> <ChEMBL_Data_Neisseria_g: NUM_RO5_VIOLATIONS>
0

> <ChEMBL_Data_Neisseria_g: Qualifier_for_MIC_Ng>
=

> <ChEMBL_Data_Neisseria_g: ASSAY_CHEMBLID>
CHEMBL753614

> <ChEMBL_Data_Neisseria_g: DESCRIPTION_of_Assay_Ng>
Inhibition of growth of Neisseria gonorrhoeae

> <ChEMBL_Data_Neisseria_g: PUBMED_ID>
3121854

> <ChEMBL_Data_Neisseria_g: YEAR>
1988

> <ChEMBL_Data_Neisseria_g: JOURNAL>
J. Med. Chem.

> <ChEMBL_Data_Neisseria_g: VOLUME>
31

> <ChEMBL_Data_Neisseria_g: FIRST_PAGE>
122

> <ChEMBL_Data_Neisseria_g: MIC_vs_Neisseria_microg_per_mL>
69.7

> <ALogP>
1.543

> <Active>
0

> <Molecular_Weight>
290.318

$$$$

Generated by Molecular Materials Informatics

 20 20  0  0  0  0  0  0  0  0999 V2000
    5.0013   -6.0375    0.0000 O   0  0  0  0  0  0  0  0  0  0  0  0
    3.7022   -5.2875    0.0000 C   0  0  0  0  0  0  0  0  0  0  0  0
    3.7022   -3.7875    0.0000 C   0  0  0  0  0  0  0  0  0  0  0  0
    2.4033   -3.0375    0.0000 N   0  0  0  0  0  0  0  0  0  0  0  0
    1.1043   -3.7875    0.0000 C   0  0  0  0  0  0  0  0  0  0  0  0
    1.1043   -5.2875    0.0000 O   0  0  0  0  0  0  0  0  0  0  0  0
   -0.1948   -3.0375    0.0000 C   0  0  0  0  0  0  0  0  0  0  0  0
   -1.4939   -3.7875    0.0000 Cl  0  0  0  0  0  0  0  0  0  0  0  0
   -0.1948   -1.5375    0.0000 Cl  0  0  0  0  0  0  0  0  0  0  0  0
    5.0013   -3.0375    0.0000 C   0  0  0  0  0  0  0  0  0  0  0  0
    5.0013   -1.5375    0.0000 O   0  0  0  0  0  0  0  0  0  0  0  0
    6.3004   -3.7875    0.0000 C   0  0  0  0  0  0  0  0  0  0  0  0
    7.5993   -3.0375    0.0000 C   0  0  0  0  0  0  0  0  0  0  0  0
    8.8983   -3.7875    0.0000 C   0  0  0  0  0  0  0  0  0  0  0  0
    8.8983   -5.2875    0.0000 C   0  0  0  0  0  0  0  0  0  0  0  0
    7.5993   -6.0375    0.0000 C   0  0  0  0  0  0  0  0  0  0  0  0
    6.3004   -5.2875    0.0000 C   0  0  0  0  0  0  0  0  0  0  0  0
   10.1974   -6.0375    0.0000 N   0  4  0  0  0  0  0  0  0  0  0  0
   11.4965   -5.2875    0.0000 O   0  0  0  0  0  0  0  0  0  0  0  0
   10.1974   -7.5375    0.0000 O   0  5  0  0  0  0  0  0  0  0  0  0
  1  2  1  0  0  0  0
  2  3  1  0  0  0  0
  3  4  1  1  0  0  0
  4  5  1  0  0  0  0
  5  6  2  0  0  0  0
  5  7  1  0  0  0  0
  7  8  1  0  0  0  0
  7  9  1  0  0  0  0
  3 10  1  0  0  0  0
 10 11  1  6  0  0  0
 10 12  1  0  0  0  0
 12 13  2  0  0  0  0
 13 14  1  0  0  0  0
 14 15  2  0  0  0  0
 15 16  1  0  0  0  0
 16 17  2  0  0  0  0
 12 17  1  0  0  0  0
 15 18  1  0  0  0  0
 18 19  2  0  0  0  0
 18 20  1  0  0  0  0
M  CHG  1  20  -1
M  RAD  1  18   2
M  END
> <Molecule Name>
1160

> <IUPAC>
({4-[(1R,2R)-2-(2,2-dichloroacetamido)-1,3-dihydroxypropyl]phenyl}(hydroxy)amino)oxidanyl

> <Collections>
BetaLactamResistant_or_MDR
Set2_NotListedAsBetaLactamResistant (mostly)

> <ChEMBL_Data_Neisseria_g: Molecule_Preferred_NAME>
CHLORAMPHENICOL

> <ChEMBL_Data_Neisseria_g: NUM_RO5_VIOLATIONS>
0

> <ChEMBL_Data_Neisseria_g: Qualifier_for_MIC_Ng>
=

> <ChEMBL_Data_Neisseria_g: ASSAY_CHEMBLID>
CHEMBL3766315

> <ChEMBL_Data_Neisseria_g: DESCRIPTION_of_Assay_Ng>
Antibacterial activity against chloramphenicol-resistant Neisseria gonorrhoeae N.279 incubated for 16 to 18 hrs by broth microdilution method

> <ChEMBL_Data_Neisseria_g: PUBMED_ID>
26818454

> <ChEMBL_Data_Neisseria_g: YEAR>
2016

> <ChEMBL_Data_Neisseria_g: JOURNAL>
J. Med. Chem.

> <ChEMBL_Data_Neisseria_g: VOLUME>
59

> <ChEMBL_Data_Neisseria_g: FIRST_PAGE>
624

> <ChEMBL_Data_Neisseria_g: MIC_vs_Neisseria_microg_per_mL>
64

> <ALogP>
1.025

> <Active>
0

> <Molecular_Weight>
323.129

> <ChEMBL_Data_Neisseria_g: STRAIN_of_Ng>
N.279

$$$$

Generated by Molecular Materials Informatics

 24 26  0  0  0  0  0  0  0  0999 V2000
    5.4489    0.3809    0.0000 C   0  0  0  0  0  0  0  0  0  0  0  0
    4.3342    1.3847    0.0000 C   0  0  0  0  0  0  0  0  0  0  0  0
    5.4489    2.3883    0.0000 C   0  0  0  0  0  0  0  0  0  0  0  0
    3.4526    0.1711    0.0000 S   0  0  0  0  0  0  0  0  0  0  0  0
    2.0259    0.6347    0.0000 C   0  0  0  0  0  0  0  0  0  0  0  0
    0.5259    0.6347    0.0000 C   0  0  0  0  0  0  0  0  0  0  0  0
   -0.5347   -0.4260    0.0000 N   0  0  0  0  0  0  0  0  0  0  0  0
   -1.9836   -0.0379    0.0000 C   0  0  0  0  0  0  0  0  0  0  0  0
   -2.3718    1.4110    0.0000 O   0  0  0  0  0  0  0  0  0  0  0  0
   -3.0443   -1.0984    0.0000 C   0  0  0  0  0  0  0  0  0  0  0  0
   -2.6559   -2.5473    0.0000 N   0  0  0  0  0  0  0  0  0  0  0  0
   -4.4932   -0.7102    0.0000 C   0  0  0  0  0  0  0  0  0  0  0  0
   -5.5538   -1.7709    0.0000 C   0  0  0  0  0  0  0  0  0  0  0  0
   -7.0027   -1.3826    0.0000 C   0  0  0  0  0  0  0  0  0  0  0  0
   -7.3908    0.0663    0.0000 C   0  0  0  0  0  0  0  0  0  0  0  0
   -6.3303    1.1269    0.0000 C   0  0  0  0  0  0  0  0  0  0  0  0
   -4.8814    0.7387    0.0000 C   0  0  0  0  0  0  0  0  0  0  0  0
    0.5259    2.1347    0.0000 C   0  0  0  0  0  0  0  0  0  0  0  0
   -0.5347    3.1952    0.0000 O   0  0  0  0  0  0  0  0  0  0  0  0
    2.0259    2.1347    0.0000 N   0  0  0  0  0  0  0  0  0  0  0  0
    3.4526    2.5981    0.0000 C   0  0  0  0  0  0  0  0  0  0  0  0
    3.9160    4.0247    0.0000 C   0  0  0  0  0  0  0  0  0  0  0  0
    2.9124    5.1394    0.0000 O   0  0  0  0  0  0  0  0  0  0  0  0
    5.3833    4.3367    0.0000 O   0  0  0  0  0  0  0  0  0  0  0  0
  1  2  1  0  0  0  0
  2  3  1  0  0  0  0
  2  4  1  0  0  0  0
  4  5  1  0  0  0  0
  5  6  1  0  0  0  0
  6  7  1  6  0  0  0
  7  8  1  0  0  0  0
  8  9  2  0  0  0  0
  8 10  1  0  0  0  0
 10 11  1  6  0  0  0
 10 12  1  0  0  0  0
 12 13  2  0  0  0  0
 13 14  1  0  0  0  0
 14 15  2  0  0  0  0
 15 16  1  0  0  0  0
 16 17  2  0  0  0  0
 12 17  1  0  0  0  0
  6 18  1  0  0  0  0
 18 19  2  0  0  0  0
 18 20  1  0  0  0  0
  5 20  1  6  0  0  0
 20 21  1  0  0  0  0
  2 21  1  0  0  0  0
 21 22  1  1  0  0  0
 22 23  2  0  0  0  0
 22 24  1  0  0  0  0
M  END
> <Molecule Name>
1092

> <CDD Number>
CDD-14122

> <IUPAC>
(2S,5R,6R)-6-[(2R)-2-amino-2-phenylacetamido]-3,3-dimethyl-7-oxo-4-thia-1-azabicyclo[3.2.0]heptane-2-carboxylic acid

> <Collections>
BetaLactamResistant_or_MDR
Set2_NotListedAsBetaLactamResistant (mostly)

> <ChEMBL_Data_Neisseria_g: Molecule_Preferred_NAME>
AMPICILLIN

> <ChEMBL_Data_Neisseria_g: NUM_RO5_VIOLATIONS>
0

> <ChEMBL_Data_Neisseria_g: Qualifier_for_MIC_Ng>
>

> <ChEMBL_Data_Neisseria_g: ASSAY_CHEMBLID>
CHEMBL883406

> <ChEMBL_Data_Neisseria_g: DESCRIPTION_of_Assay_Ng>
The compound was tested for minimal inhibitory concentration against Penicillinase producing Neisseria gonorrhoeae (PPNG)

> <ChEMBL_Data_Neisseria_g: PUBMED_ID>
12161151

> <ChEMBL_Data_Neisseria_g: YEAR>
2002

> <ChEMBL_Data_Neisseria_g: JOURNAL>
Bioorg. Med. Chem. Lett.

> <ChEMBL_Data_Neisseria_g: VOLUME>
12

> <ChEMBL_Data_Neisseria_g: FIRST_PAGE>
2435

> <ChEMBL_Data_Neisseria_g: MIC_vs_Neisseria_microg_per_mL>
32

> <ALogP>
-2.297

> <Active>
0

> <Molecular_Weight>
349.405

$$$$

Generated by Molecular Materials Informatics

 32 35  0  0  0  0  0  0  0  0999 V2000
    0.9743    3.2438    0.0000 C   0  0  0  0  0  0  0  0  0  0  0  0
    0.9743    1.7437    0.0000 C   0  0  0  0  0  0  0  0  0  0  0  0
    2.2733    0.9937    0.0000 C   0  0  0  0  0  0  0  0  0  0  0  0
    3.5724    1.7437    0.0000 C   0  0  0  0  0  0  0  0  0  0  0  0
    3.5724    3.2438    0.0000 O   0  0  0  0  0  0  0  0  0  0  0  0
    4.8713    0.9937    0.0000 C   0  0  0  0  0  0  0  0  0  0  0  0
    6.1704    1.7437    0.0000 C   0  0  0  0  0  0  0  0  0  0  0  0
    6.1704    3.2438    0.0000 N   0  0  0  0  0  0  0  0  0  0  0  0
    7.4695    3.9937    0.0000 C   0  0  0  0  0  0  0  0  0  0  0  0
    4.8713    3.9937    0.0000 C   0  0  0  0  0  0  0  0  0  0  0  0
    7.4695    0.9937    0.0000 C   0  0  0  0  0  0  0  0  0  0  0  0
    7.4695   -0.5062    0.0000 C   0  0  0  0  0  0  0  0  0  0  0  0
    8.7684   -1.2562    0.0000 C   0  0  0  0  0  0  0  0  0  0  0  0
    8.7684   -2.7562    0.0000 O   0  0  0  0  0  0  0  0  0  0  0  0
   10.0675   -0.5062    0.0000 N   0  0  0  0  0  0  0  0  0  0  0  0
    6.1704   -1.2562    0.0000 C   0  0  0  0  0  0  0  0  0  0  0  0
    6.1704   -2.7562    0.0000 O   0  0  0  0  0  0  0  0  0  0  0  0
    4.8713   -0.5062    0.0000 C   0  0  0  0  0  0  0  0  0  0  0  0
    4.8713   -2.0062    0.0000 O   0  0  0  0  0  0  0  0  0  0  0  0
    3.5724   -1.2562    0.0000 C   0  0  0  0  0  0  0  0  0  0  0  0
    2.2733   -0.5062    0.0000 C   0  0  0  0  0  0  0  0  0  0  0  0
    0.9743   -1.2562    0.0000 C   0  0  0  0  0  0  0  0  0  0  0  0
    0.9743   -2.7562    0.0000 O   0  0  0  0  0  0  0  0  0  0  0  0
   -0.3248   -0.5062    0.0000 C   0  0  0  0  0  0  0  0  0  0  0  0
   -1.6237   -1.2562    0.0000 C   0  0  0  0  0  0  0  0  0  0  0  0
   -1.6237   -2.7562    0.0000 O   0  0  0  0  0  0  0  0  0  0  0  0
   -2.9228   -0.5062    0.0000 C   0  0  0  0  0  0  0  0  0  0  0  0
   -2.9228    0.9937    0.0000 C   0  0  0  0  0  0  0  0  0  0  0  0
   -1.6237    1.7437    0.0000 C   0  0  0  0  0  0  0  0  0  0  0  0
   -0.3248    0.9937    0.0000 C   0  0  0  0  0  0  0  0  0  0  0  0
    3.5724   -2.7562    0.0000 O   0  0  0  0  0  0  0  0  0  0  0  0
    8.7684    1.7437    0.0000 O   0  0  0  0  0  0  0  0  0  0  0  0
  2  1  1  6  0  0  0
  2  3  1  0  0  0  0
  3  4  1  0  0  0  0
  4  5  1  6  0  0  0
  6  4  1  1  0  0  0
  6  7  1  0  0  0  0
  7  8  1  6  0  0  0
  8  9  1  0  0  0  0
  8 10  1  0  0  0  0
  7 11  1  0  0  0  0
 11 12  2  0  0  0  0
 12 13  1  0  0  0  0
 13 14  2  0  0  0  0
 13 15  1  0  0  0  0
 12 16  1  0  0  0  0
 16 17  2  0  0  0  0
 16 18  1  0  0  0  0
  6 18  1  0  0  0  0
 18 19  1  6  0  0  0
 18 20  1  0  0  0  0
 20 21  2  0  0  0  0
  3 21  1  1  0  0  0
 21 22  1  0  0  0  0
 22 23  2  0  0  0  0
 22 24  1  0  0  0  0
 24 25  2  0  0  0  0
 25 26  1  0  0  0  0
 25 27  1  0  0  0  0
 27 28  2  0  0  0  0
 28 29  1  0  0  0  0
 29 30  2  0  0  0  0
  2 30  1  0  0  0  0
 24 30  1  0  0  0  0
 20 31  1  0  0  0  0
 11 32  1  0  0  0  0
M  END
> <Molecule Name>
980

> <CDD Number>
CDD-14706

> <IUPAC>
(4S,4aR,5S,5aR,6R,12aS)-4-(dimethylamino)-5,10,12,12a-tetrahydroxy-6-methyl-1,3,11-trioxo-1,2,3,4,4a,5,5a,6,11,12a-decahydrotetracene-2-carboxamide

> <Collections>
Set2_NotListedAsBetaLactamResistant (mostly)

> <ChEMBL_Data_Neisseria_g: Molecule_Preferred_NAME>
DOXYCYCLINE

> <ChEMBL_Data_Neisseria_g: NUM_RO5_VIOLATIONS>
1

> <ChEMBL_Data_Neisseria_g: Qualifier_for_MIC_Ng>
>

> <ChEMBL_Data_Neisseria_g: ASSAY_CHEMBLID>
CHEMBL883406

> <ChEMBL_Data_Neisseria_g: DESCRIPTION_of_Assay_Ng>
The compound was tested for minimal inhibitory concentration against Penicillinase producing Neisseria gonorrhoeae (PPNG)

> <ChEMBL_Data_Neisseria_g: PUBMED_ID>
12161151

> <ChEMBL_Data_Neisseria_g: YEAR>
2002

> <ChEMBL_Data_Neisseria_g: JOURNAL>
Bioorg. Med. Chem. Lett.

> <ChEMBL_Data_Neisseria_g: VOLUME>
12

> <ChEMBL_Data_Neisseria_g: FIRST_PAGE>
2435

> <ChEMBL_Data_Neisseria_g: MIC_vs_Neisseria_microg_per_mL>
32

> <ALogP>
-0.751

> <Active>
0

> <Molecular_Weight>
444.435

$$$$

Generated by Molecular Materials Informatics

 23 25  0  0  0  0  0  0  0  0999 V2000
    5.4490    0.2062    0.0000 C   0  0  0  0  0  0  0  0  0  0  0  0
    4.3342    1.2100    0.0000 C   0  0  0  0  0  0  0  0  0  0  0  0
    5.4490    2.2136    0.0000 C   0  0  0  0  0  0  0  0  0  0  0  0
    3.4526   -0.0036    0.0000 S   0  0  0  0  0  0  0  0  0  0  0  0
    2.0259    0.4600    0.0000 C   0  0  0  0  0  0  0  0  0  0  0  0
    0.5259    0.4600    0.0000 C   0  0  0  0  0  0  0  0  0  0  0  0
   -0.5347   -0.6007    0.0000 N   0  0  0  0  0  0  0  0  0  0  0  0
   -1.9836   -0.2125    0.0000 C   0  0  0  0  0  0  0  0  0  0  0  0
   -2.3718    1.2364    0.0000 O   0  0  0  0  0  0  0  0  0  0  0  0
   -3.0443   -1.2731    0.0000 C   0  0  0  0  0  0  0  0  0  0  0  0
   -4.4932   -0.8849    0.0000 C   0  0  0  0  0  0  0  0  0  0  0  0
   -5.5538   -1.9456    0.0000 C   0  0  0  0  0  0  0  0  0  0  0  0
   -7.0027   -1.5573    0.0000 C   0  0  0  0  0  0  0  0  0  0  0  0
   -7.3909   -0.1084    0.0000 C   0  0  0  0  0  0  0  0  0  0  0  0
   -6.3303    0.9522    0.0000 C   0  0  0  0  0  0  0  0  0  0  0  0
   -4.8814    0.5640    0.0000 C   0  0  0  0  0  0  0  0  0  0  0  0
    0.5259    1.9600    0.0000 C   0  0  0  0  0  0  0  0  0  0  0  0
   -0.5347    3.0206    0.0000 O   0  0  0  0  0  0  0  0  0  0  0  0
    2.0259    1.9600    0.0000 N   0  0  0  0  0  0  0  0  0  0  0  0
    3.4526    2.4235    0.0000 C   0  0  0  0  0  0  0  0  0  0  0  0
    3.9160    3.8500    0.0000 C   0  0  0  0  0  0  0  0  0  0  0  0
    2.9124    4.9647    0.0000 O   0  0  0  0  0  0  0  0  0  0  0  0
    5.3833    4.1620    0.0000 O   0  0  0  0  0  0  0  0  0  0  0  0
  1  2  1  0  0  0  0
  2  3  1  0  0  0  0
  2  4  1  0  0  0  0
  4  5  1  0  0  0  0
  5  6  1  0  0  0  0
  6  7  1  6  0  0  0
  7  8  1  0  0  0  0
  8  9  2  0  0  0  0
  8 10  1  0  0  0  0
 10 11  1  0  0  0  0
 11 12  2  0  0  0  0
 12 13  1  0  0  0  0
 13 14  2  0  0  0  0
 14 15  1  0  0  0  0
 15 16  2  0  0  0  0
 11 16  1  0  0  0  0
  6 17  1  0  0  0  0
 17 18  2  0  0  0  0
 17 19  1  0  0  0  0
  5 19  1  6  0  0  0
 19 20  1  0  0  0  0
  2 20  1  0  0  0  0
 20 21  1  1  0  0  0
 21 22  2  0  0  0  0
 21 23  1  0  0  0  0
M  END
> <Molecule Name>
954

> <CDD Number>
CDD-525

> <IUPAC>
(2S,5R,6R)-3,3-dimethyl-7-oxo-6-(2-phenylacetamido)-4-thia-1-azabicyclo[3.2.0]heptane-2-carboxylic acid

> <Collections>
BetaLactamResistant_or_MDR
Set2_NotListedAsBetaLactamResistant (mostly)
TestSet_MICsWereIn_microM_Kleb_p_ALPerryman_JSF

> <ChEMBL_Data_Neisseria_g: Molecule_Preferred_NAME>
BENZYLPENICILLIN

> <ChEMBL_Data_Neisseria_g: NUM_RO5_VIOLATIONS>
0

> <ChEMBL_Data_Neisseria_g: Qualifier_for_MIC_Ng>
>

> <ChEMBL_Data_Neisseria_g: ASSAY_CHEMBLID>
CHEMBL1287019

> <ChEMBL_Data_Neisseria_g: DESCRIPTION_of_Assay_Ng>
Antimicrobial activity against penicillin-producing Neisseria gonorrhoeae NGON 08-043 expressing beta-lactamase TEM-1, MLST type ST-7823 and MAST type ST-1288 by agar dilution method

> <ChEMBL_Data_Neisseria_g: PUBMED_ID>
20421400

> <ChEMBL_Data_Neisseria_g: YEAR>
2010

> <ChEMBL_Data_Neisseria_g: JOURNAL>
Antimicrob. Agents Chemother.

> <ChEMBL_Data_Neisseria_g: VOLUME>
54

> <ChEMBL_Data_Neisseria_g: FIRST_PAGE>
3021

> <ChEMBL_Data_Neisseria_g: MIC_vs_Neisseria_microg_per_mL>
64

> <ALogP>
1.124

> <Active>
0

> <Molecular_Weight>
334.39

> <ChEMBL_Data_Neisseria_g: STRAIN_of_Ng>
NGON 08-043

$$$$

Generated by Molecular Materials Informatics

 51 53  0  0  0  0  0  0  0  0999 V2000
   -2.1434    7.5055    0.0000 C   0  0  0  0  0  0  0  0  0  0  0  0
   -3.4424    6.7555    0.0000 C   0  0  0  0  0  0  0  0  0  0  0  0
   -3.4424    5.2555    0.0000 C   0  0  0  0  0  0  0  0  0  0  0  0
   -2.1434    6.0055    0.0000 O   0  0  0  0  0  0  0  0  0  0  0  0
   -0.8443    5.2555    0.0000 C   0  0  0  0  0  0  0  0  0  0  0  0
    0.4546    6.0055    0.0000 O   0  0  0  0  0  0  0  0  0  0  0  0
   -0.8443    3.7555    0.0000 C   0  0  0  0  0  0  0  0  0  0  0  0
    0.6473    3.9123    0.0000 C   0  0  0  0  0  0  0  0  0  0  0  0
   -2.1434    3.0056    0.0000 C   0  0  0  0  0  0  0  0  0  0  0  0
   -0.8443    2.2556    0.0000 O   0  0  0  0  0  0  0  0  0  0  0  0
    0.4546    3.0056    0.0000 C   0  0  0  0  0  0  0  0  0  0  0  0
    0.4546    4.5055    0.0000 C   0  0  0  0  0  0  0  0  0  0  0  0
    1.7537    5.2555    0.0000 C   0  0  0  0  0  0  0  0  0  0  0  0
    0.7895    6.4046    0.0000 C   0  0  0  0  0  0  0  0  0  0  0  0
    2.7179    6.4046    0.0000 O   0  0  0  0  0  0  0  0  0  0  0  0
    2.2048    7.8140    0.0000 C   0  0  0  0  0  0  0  0  0  0  0  0
    3.0528    4.5055    0.0000 C   0  0  0  0  0  0  0  0  0  0  0  0
    4.3517    5.2555    0.0000 O   0  0  0  0  0  0  0  0  0  0  0  0
    3.0528    3.0056    0.0000 C   0  0  0  0  0  0  0  0  0  0  0  0
    4.3517    2.2556    0.0000 C   0  0  0  0  0  0  0  0  0  0  0  0
    1.7537    2.2556    0.0000 O   0  0  0  0  0  0  0  0  0  0  0  0
   -2.1434    1.5056    0.0000 C   0  0  0  0  0  0  0  0  0  0  0  0
   -0.8443    0.7556    0.0000 C   0  0  0  0  0  0  0  0  0  0  0  0
   -3.4424    0.7556    0.0000 C   0  0  0  0  0  0  0  0  0  0  0  0
   -3.4424   -0.7444    0.0000 O   0  0  0  0  0  0  0  0  0  0  0  0
   -2.1434   -1.4944    0.0000 C   0  0  0  0  0  0  0  0  0  0  0  0
   -0.8443   -0.7444    0.0000 O   0  0  0  0  0  0  0  0  0  0  0  0
    0.4546   -1.4944    0.0000 C   0  0  0  0  0  0  0  0  0  0  0  0
    1.7537   -0.7444    0.0000 C   0  0  0  0  0  0  0  0  0  0  0  0
    0.4546   -2.9944    0.0000 C   0  0  0  0  0  0  0  0  0  0  0  0
   -0.8443   -3.7444    0.0000 C   0  0  0  0  0  0  0  0  0  0  0  0
   -2.1434   -2.9944    0.0000 C   0  0  0  0  0  0  0  0  0  0  0  0
   -3.4424   -3.7444    0.0000 O   0  0  0  0  0  0  0  0  0  0  0  0
   -0.8443   -5.2443    0.0000 N   0  0  0  0  0  0  0  0  0  0  0  0
    0.4546   -5.9943    0.0000 C   0  0  0  0  0  0  0  0  0  0  0  0
   -2.1434   -5.9943    0.0000 C   0  0  0  0  0  0  0  0  0  0  0  0
   -4.7415    1.5056    0.0000 C   0  0  0  0  0  0  0  0  0  0  0  0
   -4.2284    0.0961    0.0000 C   0  0  0  0  0  0  0  0  0  0  0  0
   -5.2544    0.0961    0.0000 O   0  0  0  0  0  0  0  0  0  0  0  0
   -6.0404    0.7556    0.0000 C   0  0  0  0  0  0  0  0  0  0  0  0
   -7.3395    1.5056    0.0000 C   0  0  0  0  0  0  0  0  0  0  0  0
   -8.6385    0.7556    0.0000 C   0  0  0  0  0  0  0  0  0  0  0  0
   -7.3395    3.0056    0.0000 C   0  0  0  0  0  0  0  0  0  0  0  0
   -8.6385    3.7555    0.0000 O   0  0  0  0  0  0  0  0  0  0  0  0
   -6.0404    3.7555    0.0000 C   0  0  0  0  0  0  0  0  0  0  0  0
   -4.7415    3.0056    0.0000 C   0  0  0  0  0  0  0  0  0  0  0  0
   -6.0404    5.2555    0.0000 C   0  0  0  0  0  0  0  0  0  0  0  0
   -7.3395    6.0055    0.0000 O   0  0  0  0  0  0  0  0  0  0  0  0
   -4.7415    6.0055    0.0000 C   0  0  0  0  0  0  0  0  0  0  0  0
   -5.4457    7.3299    0.0000 C   0  0  0  0  0  0  0  0  0  0  0  0
   -4.0372    7.3299    0.0000 O   0  0  0  0  0  0  0  0  0  0  0  0
  1  2  1  0  0  0  0
  3  2  1  6  0  0  0
  3  4  1  0  0  0  0
  4  5  1  0  0  0  0
  5  6  2  0  0  0  0
  5  7  1  0  0  0  0
  7  8  1  6  0  0  0
  7  9  1  0  0  0  0
  9 10  1  6  0  0  0
 11 10  1  1  0  0  0
 11 12  1  0  0  0  0
 12 13  1  0  0  0  0
 13 14  1  6  0  0  0
 13 15  1  1  0  0  0
 15 16  1  0  0  0  0
 13 17  1  0  0  0  0
 17 18  1  1  0  0  0
 17 19  1  0  0  0  0
 19 20  1  6  0  0  0
 19 21  1  0  0  0  0
 11 21  1  0  0  0  0
  9 22  1  0  0  0  0
 22 23  1  6  0  0  0
 22 24  1  0  0  0  0
 24 25  1  1  0  0  0
 26 25  1  6  0  0  0
 26 27  1  0  0  0  0
 27 28  1  0  0  0  0
 28 29  1  6  0  0  0
 28 30  1  0  0  0  0
 30 31  1  0  0  0  0
 31 32  1  0  0  0  0
 26 32  1  0  0  0  0
 32 33  1  1  0  0  0
 31 34  1  6  0  0  0
 34 35  1  0  0  0  0
 34 36  1  0  0  0  0
 24 37  1  0  0  0  0
 37 38  1  1  0  0  0
 37 39  1  6  0  0  0
 37 40  1  0  0  0  0
 40 41  1  0  0  0  0
 41 42  1  1  0  0  0
 41 43  1  0  0  0  0
 43 44  2  0  0  0  0
 43 45  1  0  0  0  0
 45 46  1  1  0  0  0
 45 47  1  0  0  0  0
 47 48  1  1  0  0  0
 47 49  1  0  0  0  0
  3 49  1  0  0  0  0
 49 50  1  1  0  0  0
 49 51  1  6  0  0  0
M  END
> <Molecule Name>
935

> <CDD Number>
CDD-1168

> <IUPAC>
(3R,4S,5S,6R,7R,9R,11R,12R,13S,14R)-6-{[(2S,3R,4S,6R)-4-(dimethylamino)-3-hydroxy-6-methyloxan-2-yl]oxy}-14-ethyl-7,12,13-trihydroxy-4-{[(2R,4R,5S,6S)-5-hydroxy-4-methoxy-4,6-dimethyloxan-2-yl]oxy}-3,
5,7,9,11,13-hexamethyl-1-oxacyclotetradecane-2,10-dione

> <Collections>
BetaLactamResistant_or_MDR
Set2_NotListedAsBetaLactamResistant (mostly)
TestSet_MICsWereIn_microM_Kleb_p_ALPerryman_JSF
TrainingSet_Kleb_p_ALPerryman_JSF

> <ChEMBL_Data_Neisseria_g: Molecule_Preferred_NAME>
ERYTHROMYCIN

> <ChEMBL_Data_Neisseria_g: NUM_RO5_VIOLATIONS>
2

> <ChEMBL_Data_Neisseria_g: Qualifier_for_MIC_Ng>
=

> <ChEMBL_Data_Neisseria_g: ASSAY_CHEMBLID>
CHEMBL1678827

> <ChEMBL_Data_Neisseria_g: DESCRIPTION_of_Assay_Ng>
Antimicrobial activity against Neisseria gonorrhoeae isolate 254921 NG-MAST sequence type 649 selected after 2 to 8 mg/L of compound by Etest

> <ChEMBL_Data_Neisseria_g: PUBMED_ID>
20585125

> <ChEMBL_Data_Neisseria_g: YEAR>
2010

> <ChEMBL_Data_Neisseria_g: JOURNAL>
Antimicrob. Agents Chemother.

> <ChEMBL_Data_Neisseria_g: VOLUME>
54

> <ChEMBL_Data_Neisseria_g: FIRST_PAGE>
3812

> <ChEMBL_Data_Neisseria_g: MIC_vs_Neisseria_microg_per_mL>
4

> <ALogP>
1.792

> <Active>
1

> <Molecular_Weight>
733.927

> <ChEMBL_Data_Neisseria_g: STRAIN_of_Ng>
isolate 254921

$$$$

Generated by Molecular Materials Informatics

 52 54  0  0  0  0  0  0  0  0999 V2000
   -1.0596    9.0411    0.0000 C   0  0  0  0  0  0  0  0  0  0  0  0
   -2.4352    8.4433    0.0000 C   0  0  0  0  0  0  0  0  0  0  0  0
   -2.6052    6.9529    0.0000 C   0  0  0  0  0  0  0  0  0  0  0  0
   -1.1453    7.2966    0.0000 O   0  0  0  0  0  0  0  0  0  0  0  0
   -0.3673    6.0142    0.0000 C   0  0  0  0  0  0  0  0  0  0  0  0
    1.1276    5.8897    0.0000 O   0  0  0  0  0  0  0  0  0  0  0  0
   -1.3465    4.8779    0.0000 C   0  0  0  0  0  0  0  0  0  0  0  0
   -2.7469    5.4155    0.0000 C   0  0  0  0  0  0  0  0  0  0  0  0
   -1.3822    3.2368    0.0000 C   0  0  0  0  0  0  0  0  0  0  0  0
   -0.0831    2.4868    0.0000 O   0  0  0  0  0  0  0  0  0  0  0  0
    1.2160    3.2368    0.0000 C   0  0  0  0  0  0  0  0  0  0  0  0
    1.2160    4.7368    0.0000 C   0  0  0  0  0  0  0  0  0  0  0  0
    2.5149    5.4868    0.0000 C   0  0  0  0  0  0  0  0  0  0  0  0
    1.5507    6.6358    0.0000 C   0  0  0  0  0  0  0  0  0  0  0  0
    3.4790    6.6358    0.0000 O   0  0  0  0  0  0  0  0  0  0  0  0
    2.9661    8.0455    0.0000 C   0  0  0  0  0  0  0  0  0  0  0  0
    3.8140    4.7368    0.0000 C   0  0  0  0  0  0  0  0  0  0  0  0
    5.1130    5.4868    0.0000 O   0  0  0  0  0  0  0  0  0  0  0  0
    3.8140    3.2368    0.0000 C   0  0  0  0  0  0  0  0  0  0  0  0
    5.1130    2.4868    0.0000 C   0  0  0  0  0  0  0  0  0  0  0  0
    2.5149    2.4868    0.0000 O   0  0  0  0  0  0  0  0  0  0  0  0
   -2.6645    2.4588    0.0000 C   0  0  0  0  0  0  0  0  0  0  0  0
   -3.9796    3.1804    0.0000 C   0  0  0  0  0  0  0  0  0  0  0  0
   -2.6320    0.9592    0.0000 C   0  0  0  0  0  0  0  0  0  0  0  0
   -1.3171    0.2376    0.0000 O   0  0  0  0  0  0  0  0  0  0  0  0
   -1.2843   -1.2621    0.0000 C   0  0  0  0  0  0  0  0  0  0  0  0
    0.0305   -1.9837    0.0000 O   0  0  0  0  0  0  0  0  0  0  0  0
    0.0631   -3.4833    0.0000 C   0  0  0  0  0  0  0  0  0  0  0  0
    1.3782   -4.2049    0.0000 C   0  0  0  0  0  0  0  0  0  0  0  0
   -1.2193   -4.2613    0.0000 C   0  0  0  0  0  0  0  0  0  0  0  0
   -2.5343   -3.5397    0.0000 C   0  0  0  0  0  0  0  0  0  0  0  0
   -2.5669   -2.0401    0.0000 C   0  0  0  0  0  0  0  0  0  0  0  0
   -3.8820   -1.3184    0.0000 O   0  0  0  0  0  0  0  0  0  0  0  0
   -3.8167   -4.3177    0.0000 N   0  0  0  0  0  0  0  0  0  0  0  0
   -3.7841   -5.8173    0.0000 C   0  0  0  0  0  0  0  0  0  0  0  0
   -5.1318   -3.5960    0.0000 C   0  0  0  0  0  0  0  0  0  0  0  0
   -3.9145    0.1812    0.0000 C   0  0  0  0  0  0  0  0  0  0  0  0
   -2.9256   -0.9466    0.0000 C   0  0  0  0  0  0  0  0  0  0  0  0
   -4.8534   -0.9886    0.0000 O   0  0  0  0  0  0  0  0  0  0  0  0
   -5.2294    0.9028    0.0000 C   0  0  0  0  0  0  0  0  0  0  0  0
   -5.2619    2.4024    0.0000 C   0  0  0  0  0  0  0  0  0  0  0  0
   -4.6818    3.7857    0.0000 C   0  0  0  0  0  0  0  0  0  0  0  0
   -6.5770    3.1241    0.0000 C   0  0  0  0  0  0  0  0  0  0  0  0
   -6.6096    4.6237    0.0000 N   0  0  0  0  0  0  0  0  0  0  0  0
   -7.9246    5.3453    0.0000 C   0  0  0  0  0  0  0  0  0  0  0  0
   -5.3272    5.4017    0.0000 C   0  0  0  0  0  0  0  0  0  0  0  0
   -4.0121    4.6800    0.0000 C   0  0  0  0  0  0  0  0  0  0  0  0
   -5.3597    6.9013    0.0000 C   0  0  0  0  0  0  0  0  0  0  0  0
   -6.6746    7.6229    0.0000 O   0  0  0  0  0  0  0  0  0  0  0  0
   -4.0772    7.6793    0.0000 C   0  0  0  0  0  0  0  0  0  0  0  0
   -4.8318    8.9758    0.0000 C   0  0  0  0  0  0  0  0  0  0  0  0
   -3.4381    9.0364    0.0000 O   0  0  0  0  0  0  0  0  0  0  0  0
  1  2  1  0  0  0  0
  3  2  1  6  0  0  0
  3  4  1  0  0  0  0
  4  5  1  0  0  0  0
  5  6  2  0  0  0  0
  5  7  1  0  0  0  0
  7  8  1  1  0  0  0
  7  9  1  0  0  0  0
  9 10  1  1  0  0  0
 11 10  1  1  0  0  0
 11 12  1  0  0  0  0
 12 13  1  0  0  0  0
 13 14  1  6  0  0  0
 13 15  1  1  0  0  0
 15 16  1  0  0  0  0
 13 17  1  0  0  0  0
 17 18  1  1  0  0  0
 17 19  1  0  0  0  0
 19 20  1  6  0  0  0
 19 21  1  0  0  0  0
 11 21  1  0  0  0  0
  9 22  1  0  0  0  0
 22 23  1  1  0  0  0
 22 24  1  0  0  0  0
 24 25  1  1  0  0  0
 26 25  1  6  0  0  0
 26 27  1  0  0  0  0
 27 28  1  0  0  0  0
 28 29  1  6  0  0  0
 28 30  1  0  0  0  0
 30 31  1  0  0  0  0
 31 32  1  0  0  0  0
 26 32  1  0  0  0  0
 32 33  1  1  0  0  0
 31 34  1  6  0  0  0
 34 35  1  0  0  0  0
 34 36  1  0  0  0  0
 24 37  1  0  0  0  0
 37 38  1  1  0  0  0
 37 39  1  6  0  0  0
 37 40  1  0  0  0  0
 40 41  1  0  0  0  0
 41 42  1  6  0  0  0
 41 43  1  0  0  0  0
 43 44  1  0  0  0  0
 44 45  1  0  0  0  0
 44 46  1  0  0  0  0
 46 47  1  1  0  0  0
 46 48  1  0  0  0  0
 48 49  1  1  0  0  0
 48 50  1  0  0  0  0
  3 50  1  0  0  0  0
 50 51  1  1  0  0  0
 50 52  1  6  0  0  0
M  END
> <Molecule Name>
882

> <CDD Number>
CDD-14298

> <IUPAC>
(2R,3S,4R,5R,8R,10R,11R,12S,13S,14R)-11-{[(2S,3R,4S,6R)-4-(dimethylamino)-3-hydroxy-6-methyloxan-2-yl]oxy}-2-ethyl-3,4,10-trihydroxy-13-{[(2R,4R,5S,6S)-5-hydroxy-4-methoxy-4,6-dimethyloxan-2-yl]oxy}-3
,5,6,8,10,12,14-heptamethyl-1-oxa-6-azacyclopentadecan-15-one

> <Collections>
Set2_NotListedAsBetaLactamResistant (mostly)
TrainingSet_Kleb_p_ALPerryman_JSF

> <ChEMBL_Data_Neisseria_g: Molecule_Preferred_NAME>
AZITHROMYCIN

> <ChEMBL_Data_Neisseria_g: NUM_RO5_VIOLATIONS>
2

> <ChEMBL_Data_Neisseria_g: Qualifier_for_MIC_Ng>
>

> <ChEMBL_Data_Neisseria_g: ASSAY_CHEMBLID>
CHEMBL1265573

> <ChEMBL_Data_Neisseria_g: DESCRIPTION_of_Assay_Ng>
Antimicrobial activity against high-level azithromycin resistant Neisseria gonorrhoeae isolate 1782 harboring A2143G mutation in peptidyltransferase loop in domain V of 23S rRNA alleles

> <ChEMBL_Data_Neisseria_g: PUBMED_ID>
20123998

> <ChEMBL_Data_Neisseria_g: YEAR>
2010

> <ChEMBL_Data_Neisseria_g: JOURNAL>
Antimicrob. Agents Chemother.

> <ChEMBL_Data_Neisseria_g: VOLUME>
54

> <ChEMBL_Data_Neisseria_g: FIRST_PAGE>
1652

> <ChEMBL_Data_Neisseria_g: MIC_vs_Neisseria_microg_per_mL>
2048

> <ALogP>
2.078

> <Active>
0

> <Molecular_Weight>
748.984

> <ChEMBL_Data_Neisseria_g: STRAIN_of_Ng>
isolate 1782

$$$$

Generated by Molecular Materials Informatics

 23 25  0  0  0  0  0  0  0  0999 V2000
   -5.4883   -1.1438    0.0000 C   0  0  0  0  0  0  0  0  0  0  0  0
   -4.1892   -0.3938    0.0000 N   0  0  0  0  0  0  0  0  0  0  0  0
   -2.8902   -1.1438    0.0000 C   0  0  0  0  0  0  0  0  0  0  0  0
   -2.8902   -2.6437    0.0000 C   0  0  0  0  0  0  0  0  0  0  0  0
   -4.1892   -3.3937    0.0000 O   0  0  0  0  0  0  0  0  0  0  0  0
   -1.5913   -3.3937    0.0000 C   0  0  0  0  0  0  0  0  0  0  0  0
   -1.5913   -4.8937    0.0000 N   0  0  0  0  0  0  0  0  0  0  0  0
   -0.2923   -5.6436    0.0000 C   0  0  0  0  0  0  0  0  0  0  0  0
   -0.2923   -2.6437    0.0000 C   0  0  0  0  0  0  0  0  0  0  0  0
    1.0068   -3.3937    0.0000 O   0  0  0  0  0  0  0  0  0  0  0  0
    2.3056   -2.6437    0.0000 C   0  0  0  0  0  0  0  0  0  0  0  0
    2.3056   -4.1437    0.0000 O   0  0  0  0  0  0  0  0  0  0  0  0
    2.3056   -1.1438    0.0000 C   0  0  0  0  0  0  0  0  0  0  0  0
    3.6047   -0.3938    0.0000 O   0  0  0  0  0  0  0  0  0  0  0  0
    4.9037   -1.1438    0.0000 C   0  0  0  0  0  0  0  0  0  0  0  0
    6.2028   -0.3938    0.0000 C   0  0  0  0  0  0  0  0  0  0  0  0
    4.9037   -2.6437    0.0000 C   0  0  0  0  0  0  0  0  0  0  0  0
    3.6047   -3.3937    0.0000 C   0  0  0  0  0  0  0  0  0  0  0  0
    3.6047   -4.8937    0.0000 O   0  0  0  0  0  0  0  0  0  0  0  0
    1.0068   -0.3938    0.0000 O   0  0  0  0  0  0  0  0  0  0  0  0
   -0.2923   -1.1438    0.0000 C   0  0  0  0  0  0  0  0  0  0  0  0
   -1.5913   -0.3938    0.0000 C   0  0  0  0  0  0  0  0  0  0  0  0
   -1.5913    1.1061    0.0000 O   0  0  0  0  0  0  0  0  0  0  0  0
  1  2  1  0  0  0  0
  3  2  1  1  0  0  0
  3  4  1  0  0  0  0
  4  5  1  1  0  0  0
  4  6  1  0  0  0  0
  6  7  1  1  0  0  0
  7  8  1  0  0  0  0
  6  9  1  0  0  0  0
  9 10  1  6  0  0  0
 10 11  1  0  0  0  0
 11 12  1  1  0  0  0
 11 13  1  0  0  0  0
 13 14  1  6  0  0  0
 14 15  1  0  0  0  0
 15 16  1  6  0  0  0
 15 17  1  0  0  0  0
 17 18  1  0  0  0  0
 11 18  1  0  0  0  0
 18 19  2  0  0  0  0
 13 20  1  0  0  0  0
 21 20  1  1  0  0  0
  9 21  1  0  0  0  0
 21 22  1  0  0  0  0
  3 22  1  0  0  0  0
 22 23  1  6  0  0  0
M  END
> <Molecule Name>
795

> <CDD Number>
CDD-14864

> <IUPAC>
(1R,3S,5R,8R,10R,11S,12S,13R,14S)-8,12,14-trihydroxy-5-methyl-11,13-bis(methylamino)-2,4,9-trioxatricyclo[8.4.0.0,]tetradecan-7-one

> <Collections>
Set2_NotListedAsBetaLactamResistant (mostly)

> <ChEMBL_Data_Neisseria_g: Molecule_Preferred_NAME>
SPECTINOMYCIN

> <ChEMBL_Data_Neisseria_g: NUM_RO5_VIOLATIONS>
0

> <ChEMBL_Data_Neisseria_g: Qualifier_for_MIC_Ng>
=

> <ChEMBL_Data_Neisseria_g: ASSAY_CHEMBLID>
CHEMBL1282087

> <ChEMBL_Data_Neisseria_g: DESCRIPTION_of_Assay_Ng>
Antimicrobial activity against penicillin-,ofloxacin- and tetracyclin-resistant Neisseria gonorrhoeae multiantigen sequence type 835 isolate 3 harboring penA gene by Etest

> <ChEMBL_Data_Neisseria_g: PUBMED_ID>
18663018

> <ChEMBL_Data_Neisseria_g: YEAR>
2008

> <ChEMBL_Data_Neisseria_g: JOURNAL>
Antimicrob. Agents Chemother.

> <ChEMBL_Data_Neisseria_g: VOLUME>
52

> <ChEMBL_Data_Neisseria_g: FIRST_PAGE>
3564

> <ChEMBL_Data_Neisseria_g: MIC_vs_Neisseria_microg_per_mL>
16

> <ALogP>
-2.33

> <Active>
0

> <Molecular_Weight>
332.35

> <ChEMBL_Data_Neisseria_g: STRAIN_of_Ng>
isolate 3

$$$$

Generated by Molecular Materials Informatics

 24 27  0  0  0  0  0  0  0  0999 V2000
   -2.0458   -4.1172    0.0000 O   0  0  0  0  0  0  0  0  0  0  0  0
   -2.0458   -2.6172    0.0000 C   0  0  0  0  0  0  0  0  0  0  0  0
   -3.3449   -1.8673    0.0000 O   0  0  0  0  0  0  0  0  0  0  0  0
   -0.7468   -1.8673    0.0000 C   0  0  0  0  0  0  0  0  0  0  0  0
   -0.7468   -0.3673    0.0000 C   0  0  0  0  0  0  0  0  0  0  0  0
    0.5521    0.3827    0.0000 N   0  0  0  0  0  0  0  0  0  0  0  0
    0.5521    1.8826    0.0000 C   0  0  0  0  0  0  0  0  0  0  0  0
   -0.1979    3.1817    0.0000 C   0  0  0  0  0  0  0  0  0  0  0  0
    1.3021    3.1817    0.0000 C   0  0  0  0  0  0  0  0  0  0  0  0
    1.8511   -0.3673    0.0000 C   0  0  0  0  0  0  0  0  0  0  0  0
    3.1502    0.3827    0.0000 C   0  0  0  0  0  0  0  0  0  0  0  0
    4.4492   -0.3673    0.0000 C   0  0  0  0  0  0  0  0  0  0  0  0
    5.7481    0.3827    0.0000 N   0  0  0  0  0  0  0  0  0  0  0  0
    5.7481    1.8826    0.0000 C   0  0  0  0  0  0  0  0  0  0  0  0
    7.0471    2.6326    0.0000 C   0  0  0  0  0  0  0  0  0  0  0  0
    8.3462    1.8826    0.0000 N   0  0  0  0  0  0  0  0  0  0  0  0
    8.3462    0.3827    0.0000 C   0  0  0  0  0  0  0  0  0  0  0  0
    7.0471   -0.3673    0.0000 C   0  0  0  0  0  0  0  0  0  0  0  0
    4.4492   -1.8673    0.0000 C   0  0  0  0  0  0  0  0  0  0  0  0
    5.7481   -2.6172    0.0000 F   0  0  0  0  0  0  0  0  0  0  0  0
    3.1502   -2.6172    0.0000 C   0  0  0  0  0  0  0  0  0  0  0  0
    1.8511   -1.8673    0.0000 C   0  0  0  0  0  0  0  0  0  0  0  0
    0.5521   -2.6172    0.0000 C   0  0  0  0  0  0  0  0  0  0  0  0
    0.5521   -4.1172    0.0000 O   0  0  0  0  0  0  0  0  0  0  0  0
  1  2  1  0  0  0  0
  2  3  2  0  0  0  0
  2  4  1  0  0  0  0
  4  5  2  0  0  0  0
  5  6  1  0  0  0  0
  6  7  1  0  0  0  0
  7  8  1  0  0  0  0
  8  9  1  0  0  0  0
  7  9  1  0  0  0  0
  6 10  1  0  0  0  0
 10 11  2  0  0  0  0
 11 12  1  0  0  0  0
 12 13  1  0  0  0  0
 13 14  1  0  0  0  0
 14 15  1  0  0  0  0
 15 16  1  0  0  0  0
 16 17  1  0  0  0  0
 17 18  1  0  0  0  0
 13 18  1  0  0  0  0
 12 19  2  0  0  0  0
 19 20  1  0  0  0  0
 19 21  1  0  0  0  0
 21 22  2  0  0  0  0
 10 22  1  0  0  0  0
 22 23  1  0  0  0  0
  4 23  1  0  0  0  0
 23 24  2  0  0  0  0
M  END
> <Molecule Name>
757

> <CDD Number>
CDD-151

> <IUPAC>
1-cyclopropyl-6-fluoro-4-oxo-7-(piperazin-1-yl)-1,4-dihydroquinoline-3-carboxylic acid

> <Collections>
BetaLactamResistant_or_MDR
Set2_NotListedAsBetaLactamResistant (mostly)

> <ChEMBL_Data_Neisseria_g: Molecule_Preferred_NAME>
CIPROFLOXACIN

> <ChEMBL_Data_Neisseria_g: NUM_RO5_VIOLATIONS>
0

> <ChEMBL_Data_Neisseria_g: Qualifier_for_MIC_Ng>
>

> <ChEMBL_Data_Neisseria_g: ASSAY_CHEMBLID>
CHEMBL1639939

> <ChEMBL_Data_Neisseria_g: DESCRIPTION_of_Assay_Ng>
Antimicrobial activity against Neisseria gonorrhoeae isolate IPC-NG19 harboring gyrA S91F, D95A and parC S87N mutant gene by Etest

> <ChEMBL_Data_Neisseria_g: PUBMED_ID>
19124663

> <ChEMBL_Data_Neisseria_g: YEAR>
2009

> <ChEMBL_Data_Neisseria_g: JOURNAL>
Antimicrob. Agents Chemother.

> <ChEMBL_Data_Neisseria_g: VOLUME>
53

> <ChEMBL_Data_Neisseria_g: FIRST_PAGE>
1264

> <ChEMBL_Data_Neisseria_g: MIC_vs_Neisseria_microg_per_mL>
32

> <ALogP>
-1.27

> <Active>
0

> <Molecular_Weight>
331.342

> <ChEMBL_Data_Neisseria_g: STRAIN_of_Ng>
isolate IPC-NG19

$$$$

Generated by Molecular Materials Informatics

 25 26  0  0  0  0  0  0  0  0999 V2000
    5.6184    2.7562    0.0000 C   0  0  0  0  0  0  0  0  0  0  0  0
    4.3193    2.0062    0.0000 O   0  0  0  0  0  0  0  0  0  0  0  0
    4.3193    0.5062    0.0000 C   0  0  0  0  0  0  0  0  0  0  0  0
    5.6184   -0.2437    0.0000 C   0  0  0  0  0  0  0  0  0  0  0  0
    5.6184   -1.7437    0.0000 C   0  0  0  0  0  0  0  0  0  0  0  0
    4.3193   -2.4937    0.0000 C   0  0  0  0  0  0  0  0  0  0  0  0
    4.3193   -3.9937    0.0000 C   0  0  0  0  0  0  0  0  0  0  0  0
    3.0202   -4.7438    0.0000 C   0  0  0  0  0  0  0  0  0  0  0  0
    1.7211   -3.9937    0.0000 C   0  0  0  0  0  0  0  0  0  0  0  0
    0.4222   -4.7438    0.0000 C   0  0  0  0  0  0  0  0  0  0  0  0
   -0.8769   -3.9937    0.0000 C   0  0  0  0  0  0  0  0  0  0  0  0
   -2.1760   -4.7438    0.0000 I   0  0  0  0  0  0  0  0  0  0  0  0
   -0.8769   -2.4937    0.0000 C   0  0  0  0  0  0  0  0  0  0  0  0
   -2.1760   -1.7437    0.0000 O   0  0  0  0  0  0  0  0  0  0  0  0
   -3.4749   -2.4937    0.0000 C   0  0  0  0  0  0  0  0  0  0  0  0
    0.4222   -1.7437    0.0000 C   0  0  0  0  0  0  0  0  0  0  0  0
    0.4222   -0.2437    0.0000 I   0  0  0  0  0  0  0  0  0  0  0  0
    1.7211   -2.4937    0.0000 C   0  0  0  0  0  0  0  0  0  0  0  0
    3.0202   -1.7437    0.0000 C   0  0  0  0  0  0  0  0  0  0  0  0
    3.0202   -0.2437    0.0000 C   0  0  0  0  0  0  0  0  0  0  0  0
    1.7211    0.5062    0.0000 O   0  0  0  0  0  0  0  0  0  0  0  0
    1.7211    2.0062    0.0000 P   0  0  0  0  0  0  0  0  0  0  0  0
    3.2211    2.0062    0.0000 O   0  0  0  0  0  0  0  0  0  0  0  0
    1.7211    3.5062    0.0000 O   0  5  0  0  0  0  0  0  0  0  0  0
    0.2211    2.0062    0.0000 O   0  5  0  0  0  0  0  0  0  0  0  0
  1  2  1  0  0  0  0
  2  3  1  0  0  0  0
  3  4  2  0  0  0  0
  4  5  1  0  0  0  0
  5  6  2  0  0  0  0
  6  7  1  0  0  0  0
  7  8  2  0  0  0  0
  8  9  1  0  0  0  0
  9 10  2  0  0  0  0
 10 11  1  0  0  0  0
 11 12  1  0  0  0  0
 11 13  2  0  0  0  0
 13 14  1  0  0  0  0
 14 15  1  0  0  0  0
 13 16  1  0  0  0  0
 16 17  1  0  0  0  0
 16 18  2  0  0  0  0
  9 18  1  0  0  0  0
  6 19  1  0  0  0  0
 19 20  2  0  0  0  0
  3 20  1  0  0  0  0
 20 21  1  0  0  0  0
 21 22  1  0  0  0  0
 22 23  2  0  0  0  0
 22 24  1  0  0  0  0
 22 25  1  0  0  0  0
M  CHG  2  24  -1  25  -1
M  END
> <Molecule Name>
CHEMBL2023877

> <IUPAC>
disodium {5-[(Z)-2-(3,5-diiodo-4-methoxyphenyl)ethenyl]-2-methoxyphenoxy}phosphonic acid

> <ChEMBL_Data_Neisseria_g: NUM_RO5_VIOLATIONS>
1

> <ChEMBL_Data_Neisseria_g: Qualifier_for_MIC_Ng>
=

> <ChEMBL_Data_Neisseria_g: ASSAY_CHEMBLID>
CHEMBL2027006

> <ChEMBL_Data_Neisseria_g: DESCRIPTION_of_Assay_Ng>
Antibacterial activity against Neisseria gonorrhoeae ATCC 49226 by broth microdilution method

> <ChEMBL_Data_Neisseria_g: PUBMED_ID>
22324723

> <ChEMBL_Data_Neisseria_g: YEAR>
2012

> <ChEMBL_Data_Neisseria_g: JOURNAL>
J. Nat. Prod.

> <ChEMBL_Data_Neisseria_g: VOLUME>
75

> <ChEMBL_Data_Neisseria_g: FIRST_PAGE>
385

> <ChEMBL_Data_Neisseria_g: MIC_vs_Neisseria_microg_per_mL>
32

> <ALogP>
2.266

> <Active>
0

> <Molecular_Weight>
586.054

> <ChEMBL_Data_Neisseria_g: STRAIN_of_Ng>
ATCC 49226

$$$$
